12
155_C3H7NO_8-0-2-3 (-165,) energy =    -248.5228834
N           1.2064574    -0.8043214    -0.3254667
H           1.0714798     0.1523772    -0.0303871
C           2.4900396    -1.2903761    -0.3454934
C           3.5725595    -0.2648347    -0.0373541
H           3.8864774    -0.3866481     1.0057805
H           3.2486922     0.7711369    -0.1836312
H           4.4408921    -0.4638657    -0.6696344
O           2.7522374    -2.4666888    -0.5582357
C           0.0545065    -1.6890350    -0.2778607
H          -0.7504056    -1.3083250    -0.9152320
H          -0.3283429    -1.8076591     0.7447177
H           0.3761621    -2.6636853    -0.6471192
12
155_C3H7NO_8-0-2-3 (-150,) energy =    -248.5204047
N           1.2011854    -0.7916491    -0.4846946
H           1.0820422     0.1506374    -0.1348226
C           2.4929857    -1.2759003    -0.4634953
C           3.5487961    -0.2784187    -0.0074247
H           3.6526195    -0.3583331     1.0814315
H           3.2979726     0.7599235    -0.2515420
H           4.5091628    -0.5351941    -0.4587938
O           2.7641456    -2.4414613    -0.7123374
C           0.0737286    -1.6859027    -0.2537326
H          -0.8216360    -1.3034556    -0.7531541
H          -0.1399436    -1.8098307     0.8170361
H           0.3288409    -2.6593108    -0.6744421
12
155_C3H7NO_8-0-2-3 (-135,) energy =    -248.5158829
N           1.1966484    -0.7915525    -0.6263495
H           1.0948220     0.1514532    -0.2674968
C           2.5046542    -1.2560793    -0.5806221
C           3.5177260    -0.2939724     0.0239332
H           3.4691520    -0.3928505     1.1153362
H           3.3230774     0.7548272    -0.2288518
H           4.5233361    -0.5653241    -0.3025122
O           2.7992365    -2.4009899    -0.8841877
C           0.1104608    -1.6796386    -0.2154047
H          -0.8384621    -1.3294814    -0.6321489
H           0.0194456    -1.7417085     0.8783472
H           0.3214563    -2.6754418    -0.6076621
12
155_C3H7NO_8-0-2-3 (-120,) energy =    -248.5098118
N           1.1884719    -0.8013562    -0.7634719
H           1.0916074     0.1537345    -0.4308639
C           2.5167796    -1.2363176    -0.6839891
C           3.4726392    -0.3148581     0.0608201
H           3.2978240    -0.4514029     1.1354213
H           3.3192775     0.7462966    -0.1692922
H           4.5049488    -0.5896989    -0.1630076
O           2.8472128    -2.3523705    -1.0438081
C           0.1562097    -1.6612863    -0.1751302
H          -0.8321487    -1.3267346    -0.5029780
H           0.1866486    -1.6604981     0.9244366
H           0.3137553    -2.6810585    -0.5304334
12
155_C3H7NO_8-0-2-3 (-105,) energy =    -248.5030753
N           1.1708304    -0.8153736    -0.8918938
H           1.0689513     0.1575534    -0.6101895
C           2.5228876    -1.2114652    -0.7829196
C           3.4106332    -0.3394103     0.0937535
H           3.1258719    -0.5181828     1.1386412
H           3.2881267     0.7330382    -0.1008577
H           4.4579378    -0.6162522    -0.0394116
O           2.9021120    -2.2812028    -1.2179715
C           0.2041055    -1.6240762    -0.1333778
H          -0.8102418    -1.3014480    -0.3843637
H           0.3414594    -1.5470294     0.9563375
H           0.3148789    -2.6699942    -0.4272743
12
155_C3H7NO_8-0-2-3 (-90,) energy =    -248.5033330
N           1.0832083    -0.6457753    -0.6490430
H           0.7705215    -0.7215220    -1.6192716
C           2.4454129    -1.0647454    -0.6872079
C           3.3100219    -0.4895410     0.4159896
H           2.7918727    -0.4439971     1.3792080
H           3.5492348     0.5413301     0.1289889
H           4.2390189    -1.0552725     0.5110102
O           2.9113720    -1.6427964    -1.6507405
C           0.1831175    -1.5051422     0.1467892
H          -0.8301267    -1.0968346     0.0973495
H           0.4938930    -1.4984834     1.1967952
H           0.1657925    -2.5471014    -0.2031030
12
155_C3H7NO_8-0-2-3 (-75,) energy =    -248.5087304
N           1.0890893    -0.7211195    -0.7314275
H           0.7618343    -0.8599748    -1.6880940
C           2.4638632    -1.0322347    -0.7549204
C           3.2646617    -0.5326438     0.4338858
H           2.7024688    -0.5355330     1.3722099
H           3.5408104     0.5059983     0.2178885
H           4.1799721    -1.1178634     0.5443276
O           3.0010211    -1.4581626    -1.7626728
C           0.2119070    -1.4766110     0.1775223
H          -0.8004652    -1.0672938     0.1166006
H           0.5537786    -1.3629421     1.2105078
H           0.1746465    -2.5494649    -0.0586359
12
155_C3H7NO_8-0-2-3 (-60,) energy =    -248.5129820
N           1.0968234    -0.8039946    -0.7938468
H           0.7588487    -0.9882915    -1.7369537
C           2.4793775    -1.0020844    -0.8062612
C           3.2370022    -0.5776240     0.4409690
H           2.6796340    -0.7091482     1.3722484
H           3.4648098     0.4894754     0.3362765
H           4.1801318    -1.1248869     0.4963332
O           3.0629816    -1.2975947    -1.8372878
C           0.2274420    -1.4374403     0.2026734
H          -0.7890668    -1.0521996     0.0814281
H           0.5570108    -1.1822563     1.2129357
H           0.2000182    -2.5327428     0.1126706
12
155_C3H7NO_8-0-2-3 (-45,) energy =    -248.5165742
N           1.0747207    -0.8557882    -0.8156627
H           0.7308405    -1.1455559    -1.7277788
C           2.4507552    -1.0420593    -0.7748266
C           3.1432381    -0.6571738     0.5241856
H           2.9948137    -1.4170737     1.3014951
H           2.7593055     0.2934248     0.9084952
H           4.2123368    -0.5728015     0.3252417
O           3.0724833    -1.3698517    -1.7740966
C           0.1928460    -1.2550356     0.2798762
H          -0.8205250    -0.9040266     0.0657283
H           0.5144055    -0.7836182     1.2125507
H           0.1597699    -2.3435249     0.4339366
12
155_C3H7NO_8-0-2-3 (-30,) energy =    -248.5187600
N           1.0910979    -0.9672398    -0.9413882
H           0.7257845    -1.2634321    -1.8405253
C           2.4716591    -1.0048013    -0.9350137
C           3.1531455    -0.6791129     0.3858143
H           2.9886993    -1.4678792     1.1299875
H           2.7745682     0.2588778     0.8070473
H           4.2239066    -0.5894693     0.1997843
O           3.1009435    -1.2081133    -1.9637364
C           0.2429386    -1.2606345     0.2060258
H          -0.7881294    -0.9890710    -0.0371404
H           0.5471423    -0.6589314     1.0665287
H           0.2613982    -2.3205761     0.5002499
12
155_C3H7NO_8-0-2-3 (-15,) energy =    -248.5195734
N           1.2692631    -1.0157463    -0.8489161
H           0.9445661    -1.2577078    -1.7771541
C           2.6380320    -0.9068742    -0.7789701
C           3.2297556    -0.6672589     0.6023529
H           3.0116982    -1.4975631     1.2845267
H           2.8280142     0.2467299     1.0553555
H           4.3101506    -0.5682023     0.4934323
O           3.3285004    -0.9658397    -1.7878046
C           0.3557515    -1.2286413     0.2606226
H          -0.6657967    -1.0450104    -0.0832793
H           0.5621172    -0.5234628     1.0707338
H           0.4015117    -2.2485870     0.6704634
12
155_C3H7NO_8-0-2-3 (0,) energy =    -248.5195544
N           1.2446009    -1.1004441    -0.8580185
H           0.8721571    -1.1823343    -1.7945977
C           2.6041286    -0.9231702    -0.8172406
C           3.2194532    -0.7833199     0.5672774
H           3.0531276    -1.6836054     1.1709751
H           2.7884204     0.0631050     1.1150029
H           4.2917652    -0.6261096     0.4477545
O           3.2702778    -0.8816223    -1.8435740
C           0.3308838    -1.1692331     0.2684066
H          -0.6734290    -1.3701074    -0.1117995
H           0.2937569    -0.2289220     0.8340899
H           0.5931721    -1.9774059     0.9624140
12
155_C3H7NO_8-0-2-3 (15,) energy =    -248.5195721
N           1.1007290    -1.2852187     0.4443250
H           0.7081158    -1.8065358     1.2187613
C           2.4710643    -1.1938444     0.5085375
C           3.1639139    -0.5344857    -0.6750973
H           2.8007755     0.4882651    -0.8304458
H           2.9933922    -1.0906332    -1.6045253
H           4.2337063    -0.5067142    -0.4660319
O           3.0851242    -1.5934604     1.4889428
C           0.2699269    -1.1043911    -0.7337496
H          -0.7717546    -0.9976083    -0.4187190
H           0.3302548    -1.9456590    -1.4401694
H           0.5486457    -0.1897692    -1.2644007
12
155_C3H7NO_8-0-2-3 (30,) energy =    -248.5187600
N           1.0776368    -1.1942517     0.4665746
H           0.6951226    -1.7544805     1.2211990
C           2.4581901    -1.2309009     0.4779788
C           3.1654095    -0.5122312    -0.6615115
H           2.7913825     0.5110301    -0.7782360
H           3.0200033    -1.0302582    -1.6172802
H           4.2316679    -0.4871251    -0.4342780
O           3.0669429    -1.7452413     1.4055989
C           0.2547738    -1.1146537    -0.7328311
H          -0.7823331    -0.9299324    -0.4391211
H           0.2841351    -2.0306730    -1.3414618
H           0.5740084    -0.2759326    -1.3570810
12
155_C3H7NO_8-0-2-3 (45,) energy =    -248.5165742
N           1.0633661    -1.0492051     0.3813963
H           0.7019833    -1.6074066     1.1508042
C           2.4407829    -1.2164783     0.3137336
C           3.1582731    -0.4483501    -0.7863978
H           2.7780721     0.5754298    -0.8642285
H           3.0294354    -0.9286739    -1.7643434
H           4.2226270    -0.4322677    -0.5485706
O           3.0431584    -1.8399624     1.1745155
C           0.2061981    -1.0862675    -0.8023251
H          -0.8129751    -0.8170594    -0.5111199
H           0.1812633    -2.0728762    -1.2877310
H           0.5448664    -0.3489774    -1.5352805
12
155_C3H7NO_8-0-2-3 (60,) energy =    -248.5129820
N           1.0856803    -0.9932428     0.3772303
H           0.7290802    -1.4608436     1.2089927
C           2.4685657    -1.1883153     0.3566331
C           3.2499312    -0.3988075    -0.6806181
H           3.4706742     0.5824026    -0.2446624
H           2.7125785    -0.2331561    -1.6181953
H           4.1964803    -0.9037543    -0.8834208
O           3.0320207    -1.7909065     1.2568211
C           0.2400154    -1.2837071    -0.7849278
H          -0.7805260    -0.9530794    -0.5714292
H           0.2157072    -2.3526673    -1.0404141
H           0.5892804    -0.7278380    -1.6586486
12
155_C3H7NO_8-0-2-3 (75,) energy =    -248.5087304
N           1.0788647    -0.8950545     0.3435123
H           0.7324946    -1.3237023     1.2025095
C           2.4542553    -1.2009804     0.2981489
C           3.2772336    -0.3583161    -0.6593234
H           3.5441302     0.5611460    -0.1254265
H           2.7346191    -0.0682021    -1.5637153
H           4.1972830    -0.8821601    -0.9268474
O           2.9723488    -1.9201951     1.1347057
C           0.2241408    -1.3287222    -0.7735308
H          -0.7911247    -0.9564694    -0.6097828
H           0.1868688    -2.4217554    -0.8833655
H           0.5868184    -0.9003201    -1.7125688
12
155_C3H7NO_8-0-2-3 (90,) energy =    -248.5033330
N           1.0743498    -0.7978226     0.2885212
H           0.7419773    -1.1707350     1.1803279
C           2.4373597    -1.2107941     0.2233117
C           3.3220170    -0.3230074    -0.6279638
H           3.5505495     0.5670771    -0.0297916
H           2.8237323     0.0207842    -1.5400285
H           4.2553424    -0.8331507    -0.8744876
O           2.8858775    -2.0606998     0.9690648
C           0.1948505    -1.3653317    -0.7538022
H          -0.8210439    -0.9904663    -0.6012980
H           0.1750118    -2.4643958    -0.7455387
H           0.5272787    -1.0332831    -1.7429299
12
155_C3H7NO_8-0-2-3 (105,) energy =    -248.5030753
N           1.1576933    -1.0346961     0.4684317
H           1.0572540    -0.0221866     0.5009914
C           2.5135035    -1.3801630     0.2703059
C           3.4152519    -0.2806916    -0.2729621
H           3.2838690     0.6783967     0.2427077
H           3.1530159    -0.1252138    -1.3274278
H           4.4608193    -0.5874351    -0.2103660
O           2.8884882    -2.5329420     0.3592263
C           0.2105756    -1.5655095    -0.5240947
H          -0.8102093    -1.3347259    -0.2067301
H           0.3199860    -2.6512028    -0.5675675
H           0.3701269    -1.1538481    -1.5327373
12
155_C3H7NO_8-0-2-3 (120,) energy =    -248.5098118
N           1.1779280    -0.9814923     0.3511294
H           1.0836380     0.0298765     0.3298807
C           2.5095596    -1.3730202     0.1684451
C           3.4764502    -0.2677243    -0.2327277
H           3.3135347     0.6696601     0.3125151
H           3.3245596    -0.0631083    -1.2999831
H           4.5051385    -0.6007154    -0.0836748
O           2.8375333    -2.5463313     0.1704514
C           0.1619946    -1.6137527    -0.4969963
H          -0.8344541    -1.3955825    -0.1023404
H           0.3167753    -2.6937821    -0.4730043
H           0.2152059    -1.2712832    -1.5409586
12
155_C3H7NO_8-0-2-3 (135,) energy =    -248.5158829
N           1.1889001    -0.9295686     0.2240477
H           1.0902499     0.0784823     0.1739942
C           2.4996696    -1.3596479     0.0638256
C           3.5206690    -0.2594364    -0.1902330
H           3.3160564     0.6592499     0.3718329
H           3.4951762    -0.0140751    -1.2590851
H           4.5205206    -0.6209478     0.0568630
O           2.7930963    -2.5428260     0.0026580
C           0.1155030    -1.6436157    -0.4653962
H          -0.8434284    -1.4383449     0.0194287
H           0.3228571    -2.7124630    -0.3977292
H           0.0474382    -1.3624240    -1.5259281
12
155_C3H7NO_8-0-2-3 (150,) energy =    -248.5204047
N           1.1963714    -0.8856386     0.0895089
H           1.0802241     0.1189740     0.0474045
C           2.4905200    -1.3420543    -0.0538806
C           3.5510115    -0.2544656    -0.1549454
H           3.2904702     0.6570900     0.3944587
H           3.6777345     0.0078152    -1.2122644
H           4.5029765    -0.6408623     0.2144218
O           2.7617575    -2.5277997    -0.1739659
C           0.0780162    -1.6614065    -0.4316986
H          -0.8292320    -1.4512441     0.1428429
H           0.3287768    -2.7179065    -0.3290871
H          -0.1128599    -1.4459067    -1.4922105
12
155_C3H7NO_8-0-2-3 (165,) energy =    -248.5228834
N           1.2049961    -0.8482119    -0.0656286
H           1.0718144     0.1531001    -0.0515038
C           2.4900830    -1.3191382    -0.1705783
C           3.5740801    -0.2509142    -0.1217870
H           3.2425340     0.6889703     0.3323255
H           3.9101252    -0.0431481    -1.1442448
H           4.4300058    -0.6384455     0.4355319
O           2.7531606    -2.5038609    -0.3285037
C           0.0583082    -1.6718516    -0.4101556
H          -0.7613485    -1.5064316     0.2968557
H           0.3766744    -2.7136803    -0.3554432
H          -0.3027451    -1.4659102    -1.4267874
12
155_C3H7NO_8-0-2-3 (180,) energy =    -248.5235596
N           1.2095436    -0.8337426    -0.1562604
H           1.0611750     0.1494212     0.0154808
C           2.4935646    -1.2994764    -0.2492140
C           3.5799809    -0.2505710    -0.0526799
H           4.1730964    -0.5176437     0.8277337
H           3.1985431     0.7679384     0.0741591
H           4.2507986    -0.2743289    -0.9164741
O           2.7637013    -2.4740208    -0.4666660
C           0.0525122    -1.6946321    -0.3167113
H          -0.5439968    -1.4063804    -1.1910996
H          -0.5887082    -1.6670279     0.5723640
H           0.4248774    -2.7101385    -0.4590862
