28
387_C13H12O2S_11-12-23-24 (-165,) energy =   -1051.1807562
C          -1.5262771    -1.9641931    -2.4345515
H          -2.2276213    -2.1084133    -3.2517855
C          -0.6291023    -2.9820896    -2.1012505
H          -0.6280189    -3.9128943    -2.6611902
C           0.2758130    -2.8016741    -1.0548464
H           0.9974108    -3.5695476    -0.7950144
C           0.2630743    -1.5953393    -0.3519700
C          -0.6195431    -0.5649700    -0.6818119
H          -0.5806726     0.3731558    -0.1376653
C          -1.5197693    -0.7577047    -1.7301282
H          -2.2093394     0.0363765    -2.0019129
S           1.4288029    -1.3552391     1.0027801
C           0.4722967    -1.9630043     2.4406656
H           0.1707968    -2.9826577     2.1798020
H          -0.4300429    -1.3394789     2.4535686
O           2.5700440    -2.2584269     0.7830846
O           1.6316565     0.0960342     1.1621885
C           2.2992218    -1.8986792     6.3617750
H           2.7366634    -1.8885454     7.3563797
C           2.8696245    -1.1477947     5.3348627
H           3.7539888    -0.5460942     5.5259471
C           2.3116610    -1.1533588     4.0546520
H           2.7565160    -0.5424922     3.2775801
C           1.1798040    -1.9311005     3.7834105
C           0.6060767    -2.6763641     4.8238178
H          -0.2787134    -3.2788584     4.6287104
C           1.1591707    -2.6617189     6.1029704
H           0.7012812    -3.2490447     6.8944191
28
387_C13H12O2S_11-12-23-24 (-150,) energy =   -1051.1823543
C          -1.5276192    -1.9296153    -2.4217948
H          -2.2363270    -2.0516898    -3.2362769
C          -0.7123335    -2.9995228    -2.0439625
H          -0.7818452    -3.9490937    -2.5668573
C           0.2012194    -2.8481793    -1.0004904
H           0.8603681    -3.6584899    -0.7059518
C           0.2806205    -1.6173704    -0.3459865
C          -0.5192658    -0.5360708    -0.7208136
H          -0.4095285     0.4172968    -0.2141757
C          -1.4295540    -0.7002859    -1.7653615
H          -2.0553831     0.1330997    -2.0715713
S           1.4548781    -1.4173873     1.0083872
C           0.4408519    -1.8749713     2.4674124
H           0.0193279    -2.8580256     2.2375105
H          -0.3787595    -1.1458352     2.4669551
O           2.5162527    -2.4225642     0.8398083
O           1.7781027     0.0183949     1.1048312
C           2.3343712    -1.9099530     6.3526252
H           2.7885049    -1.9193664     7.3397761
C           2.7782861    -1.0107667     5.3825281
H           3.5802173    -0.3143944     5.6121316
C           2.1966820    -0.9898899     4.1142139
H           2.5389730    -0.2729118     3.3759122
C           1.1720478    -1.8909139     3.7942172
C           0.7260069    -2.7856400     4.7765079
H          -0.0743162    -3.4845284     4.5431512
C           1.3007383    -2.7961520     6.0470041
H           0.9434465    -3.4999522     6.7939609
28
387_C13H12O2S_11-12-23-24 (-135,) energy =   -1051.1839574
C          -1.4821560    -1.8707732    -2.4043192
H          -2.1860610    -1.9641764    -3.2267384
C          -0.7703138    -2.9912273    -1.9683480
H          -0.9149490    -3.9521489    -2.4538317
C           0.1367767    -2.8768002    -0.9146505
H           0.7174359    -3.7288767    -0.5760770
C           0.3145085    -1.6314912    -0.3084170
C          -0.3815416    -0.5011549    -0.7412348
H          -0.1966084     0.4593769    -0.2713612
C          -1.2863080    -0.6286439    -1.7957015
H          -1.8314876     0.2427809    -2.1469396
S           1.4791444    -1.4796266     1.0604214
C           0.4106630    -1.7965988     2.5232162
H          -0.0904335    -2.7482180     2.3251904
H          -0.3398719    -0.9980058     2.4897352
O           2.4546441    -2.5752421     0.9475220
O           1.9181220    -0.0724536     1.1128438
C           2.3635019    -1.8789137     6.3732584
H           2.8367378    -1.8985257     7.3512572
C           2.6541734    -0.8521628     5.4729666
H           3.3555609    -0.0690695     5.7478918
C           2.0465332    -0.8180708     4.2182978
H           2.2744710    -0.0144944     3.5259552
C           1.1491177    -1.8282629     3.8415561
C           0.8593008    -2.8523057     4.7522195
H           0.1607692    -3.6379576     4.4734842
C           1.4604654    -2.8784855     6.0107714
H           1.2251773    -3.6818036     6.7037072
28
387_C13H12O2S_11-12-23-24 (-120,) energy =   -1051.1852230
C          -1.4656446    -1.8175059    -2.4134412
H          -2.1649902    -1.8702517    -3.2433203
C          -0.8659162    -2.9854692    -1.9356248
H          -1.0927733    -3.9428363    -2.3960633
C           0.0346511    -2.9242960    -0.8718757
H           0.5297502    -3.8157136    -0.5002891
C           0.3193795    -1.6834900    -0.2982720
C          -0.2641166    -0.5071978    -0.7730003
H           0.0030457     0.4452381    -0.3268299
C          -1.1635723    -0.5812551    -1.8370417
H          -1.6214521     0.3260357    -2.2207110
S           1.4707136    -1.5998560     1.0875076
C           0.3566592    -1.7766788     2.5447277
H          -0.2051428    -2.7001017     2.3799092
H          -0.3325720    -0.9284175     2.4703643
O           2.3409979    -2.7845849     1.0251326
O           2.0367679    -0.2387408     1.1129437
C           2.3906981    -1.8556065     6.3472891
H           2.8913980    -1.8749911     7.3115368
C           2.5017041    -0.7348751     5.5213797
H           3.0912982     0.1201964     5.8405999
C           1.8571046    -0.7031149     4.2857312
H           1.9510648     0.1670424     3.6441206
C           1.0994015    -1.8029116     3.8561115
C           0.9930994    -2.9226295     4.6900058
H           0.4070217    -3.7790928     4.3654757
C           1.6327224    -2.9497850     5.9295033
H           1.5398353    -3.8261165     6.5652146
28
387_C13H12O2S_11-12-23-24 (-105,) energy =   -1051.1859960
C          -1.4379933    -1.7767693    -2.4277781
H          -2.1263110    -1.7935554    -3.2683260
C          -0.9491102    -2.9769864    -1.9058003
H          -1.2510125    -3.9246676    -2.3425963
C          -0.0632004    -2.9615286    -0.8281426
H           0.3466593    -3.8808642    -0.4224858
C           0.3193450    -1.7332791    -0.2851794
C          -0.1528652    -0.5260081    -0.8039140
H           0.1889378     0.4130726    -0.3809075
C          -1.0386685    -0.5545083    -1.8814303
H          -1.4100252     0.3769165    -2.2992395
S           1.4500318    -1.7069345     1.1193047
C           0.3060782    -1.7397844     2.5674030
H          -0.3217969    -2.6244937     2.4310013
H          -0.3123606    -0.8432873     2.4590417
O           2.2107175    -2.9667776     1.1096403
O           2.1331593    -0.4012787     1.1192480
C           2.4362446    -1.8361587     6.3110456
H           2.9690300    -1.8599996     7.2578256
C           2.3679532    -0.6509313     5.5754743
H           2.8501697     0.2494340     5.9461559
C           1.6811006    -0.6164499     4.3630698
H           1.6386744     0.3030066     3.7870318
C           1.0553663    -1.7709222     3.8709793
C           1.1343270    -2.9569877     4.6110129
H           0.6589560    -3.8582790     4.2323279
C           1.8181453    -2.9896058     5.8261865
H           1.8688184    -3.9159092     6.3918647
28
387_C13H12O2S_11-12-23-24 (-90,) energy =   -1051.1862410
C          -1.4201806    -1.7236176    -2.4371331
H          -2.0974464    -1.6980065    -3.2864048
C          -1.0638712    -2.9497557    -1.8700294
H          -1.4575149    -3.8754298    -2.2802194
C          -0.1923724    -2.9897265    -0.7813245
H           0.1169395    -3.9322551    -0.3412375
C           0.3092717    -1.7899211    -0.2730008
C          -0.0303993    -0.5584085    -0.8365646
H           0.4021539     0.3536723    -0.4382272
C          -0.9027007    -0.5312232    -1.9250687
H          -1.1713590     0.4189888    -2.3778629
S           1.4234528    -1.8319031     1.1439900
C           0.2699652    -1.7304814     2.5823442
H          -0.4078783    -2.5819428     2.4735538
H          -0.2927337    -0.8035092     2.4390691
O           2.0633805    -3.1578355     1.1736767
O           2.2239249    -0.5959839     1.1223768
C           2.4408319    -1.8003119     6.3003918
H           2.9883098    -1.8180309     7.2389207
C           2.1794702    -0.5847482     5.6652076
H           2.5257771     0.3464784     6.1050545
C           1.4745779    -0.5616813     4.4625837
H           1.2811344     0.3840284     3.9638023
C           1.0178971    -1.7538840     3.8851639
C           1.2934349    -2.9705522     4.5229960
H           0.9586198    -3.9005311     4.0716162
C           1.9982178    -2.9932518     5.7257344
H           2.2029294    -3.9426861     6.2128158
28
387_C13H12O2S_11-12-23-24 (-75,) energy =   -1051.1860204
C          -1.4224853    -1.6739024    -2.4335833
H          -2.1007209    -1.6056958    -3.2797011
C          -1.1825880    -2.9127359    -1.8339225
H          -1.6675209    -3.8066364    -2.2157849
C          -0.3106999    -3.0072675    -0.7488360
H          -0.0917513    -3.9631170    -0.2840596
C           0.3090416    -1.8485374    -0.2767946
C           0.0864572    -0.6058125    -0.8733232
H           0.6084657     0.2705890    -0.5029792
C          -0.7873290    -0.5240026    -1.9578472
H          -0.9656834     0.4349957    -2.4359226
S           1.4228078    -1.9582220     1.1372027
C           0.2886192    -1.7067786     2.5717450
H          -0.4523645    -2.5082401     2.4903082
H          -0.2043197    -0.7468195     2.3954386
O           1.9276811    -3.3409801     1.2025690
O           2.3430685    -0.8112463     1.0769563
C           2.4378512    -1.7674040     6.3048156
H           2.9798361    -1.7820049     7.2465591
C           1.9981951    -0.5562813     5.7685823
H           2.1987168     0.3765288     6.2884406
C           1.3030292    -0.5397453     4.5596207
H           0.9694185     0.4057648     4.1396666
C           1.0291200    -1.7332095     3.8800935
C           1.4831161    -2.9453398     4.4195255
H           1.2969215    -3.8726275     3.8861771
C           2.1813249    -2.9605611     5.6258375
H           2.5271056    -3.9057835     6.0351511
28
387_C13H12O2S_11-12-23-24 (-60,) energy =   -1051.1851573
C          -1.4292401    -1.6023707    -2.4215326
H          -2.1086649    -1.4791877    -3.2604454
C          -1.3183107    -2.8461955    -1.7951370
H          -1.9045804    -3.6895446    -2.1487810
C          -0.4456023    -3.0118258    -0.7192290
H          -0.3261718    -3.9753213    -0.2344659
C           0.3046278    -1.9179050    -0.2833434
C           0.2114883    -0.6719608    -0.9068553
H           0.8320333     0.1498062    -0.5641729
C          -0.6642560    -0.5189751    -1.9820098
H          -0.7431925     0.4426661    -2.4810428
S           1.4238827    -2.1175753     1.1167310
C           0.3382707    -1.7243172     2.5532770
H          -0.4588014    -2.4747810     2.5074979
H          -0.0936584    -0.7424257     2.3416593
O           1.7823290    -3.5453555     1.1984817
O           2.4600318    -1.0775417     1.0194178
C           2.4324879    -1.7129515     6.3237715
H           2.9571923    -1.7049808     7.2753144
C           1.8010923    -0.5571449     5.8635455
H           1.8330729     0.3561466     6.4514342
C           1.1324970    -0.5688067     4.6393629
H           0.6502085     0.3369300     4.2795527
C           1.0713155    -1.7373551     3.8701433
C           1.7164164    -2.8933574     4.3348042
H           1.6960702    -3.7976058     3.7351640
C           2.3908629    -2.8779869     5.5547090
H           2.8875278    -3.7791707     5.9038193
28
387_C13H12O2S_11-12-23-24 (-45,) energy =   -1051.1837561
C          -1.4346754    -1.5445519    -2.4218944
H          -2.1125068    -1.3790148    -3.2547883
C          -1.4348556    -2.7751212    -1.7605254
H          -2.1062140    -3.5666286    -2.0811034
C          -0.5647180    -2.9949507    -0.6922167
H          -0.5314696    -3.9515053    -0.1808543
C           0.2951440    -1.9674942    -0.2992549
C           0.3136481    -0.7365225    -0.9581916
H           1.0169021     0.0299400    -0.6486765
C          -0.5607283    -0.5291141    -2.0252629
H          -0.5539279     0.4211665    -2.5514848
S           1.4167261    -2.2379468     1.0871914
C           0.3979446    -1.7028123     2.5217218
H          -0.4612574    -2.3843758     2.5093487
H           0.0414128    -0.6986893     2.2757436
O           1.6360345    -3.6921069     1.2008860
O           2.5483078    -1.3091036     0.9410760
C           2.4154993    -1.6614810     6.3414044
H           2.9157276    -1.6427458     7.3058856
C           1.6162571    -0.5890757     5.9445419
H           1.4920051     0.2719519     6.5957411
C           0.9832232    -0.6138790     4.7018913
H           0.3723593     0.2311417     4.3925238
C           1.1212405    -1.7168155     3.8491423
C           1.9329063    -2.7877432     4.2508387
H           2.0630334    -3.6412682     3.5939852
C           2.5737047    -2.7557036     5.4892005
H           3.2016626    -3.5911098     5.7867227
28
387_C13H12O2S_11-12-23-24 (-30,) energy =   -1051.1821195
C          -1.4391530    -1.5163693    -2.4131427
H          -2.1136257    -1.3229582    -3.2427389
C          -1.5323245    -2.7190703    -1.7084036
H          -2.2726873    -3.4616058    -1.9920498
C          -0.6672211    -2.9746691    -0.6440199
H          -0.7064727    -3.9122295    -0.0989771
C           0.2815273    -2.0102040    -0.2988034
C           0.3933538    -0.8087293    -1.0013722
H           1.1632532    -0.0941845    -0.7283478
C          -0.4770048    -0.5652602    -2.0641375
H          -0.3986540     0.3622583    -2.6240596
S           1.3985968    -2.3274751     1.0812186
C           0.4520783    -1.6539608     2.5008553
H          -0.4762673    -2.2389429     2.5079787
H           0.2004003    -0.6256122     2.2255062
O           1.4967620    -3.7899438     1.2429001
O           2.6032285    -1.5047177     0.8873933
C           2.3813790    -1.6685042     6.3710883
H           2.8562934    -1.6584477     7.3483921
C           1.4522173    -0.6840856     6.0318379
H           1.2002669     0.0996795     6.7411973
C           0.8535344    -0.6952883     4.7726527
H           0.1419665     0.0843169     4.5093682
C           1.1554245    -1.6998779     3.8428357
C           2.0940737    -2.6812936     4.1875554
H           2.3437885    -3.4655430     3.4814059
C           2.7006854    -2.6611026     5.4443211
H           3.4281604    -3.4279014     5.6963462
28
387_C13H12O2S_11-12-23-24 (-15,) energy =   -1051.1806445
C          -1.4509315    -1.4976232    -2.4179199
H          -2.1218961    -1.2899611    -3.2469186
C          -1.6217309    -2.6588710    -1.6600907
H          -2.4191843    -3.3555335    -1.9022917
C          -0.7615355    -2.9326641    -0.5963299
H          -0.8609334    -3.8405560    -0.0101824
C           0.2611397    -2.0276592    -0.3054842
C           0.4510053    -0.8693074    -1.0615014
H           1.2763727    -0.2037051    -0.8300462
C          -0.4157191    -0.6069515    -2.1228105
H          -0.2776837     0.2873732    -2.7236938
S           1.3763829    -2.3725756     1.0689680
C           0.5153678    -1.5652784     2.4682590
H          -0.4762789    -2.0340249     2.4874113
H           0.3855157    -0.5212586     2.1654847
O           1.3642866    -3.8286947     1.2969866
O           2.6380307    -1.6572110     0.8179728
C           2.3525550    -1.6771086     6.3847675
H           2.8019043    -1.6873022     7.3740494
C           1.3149933    -0.7898462     6.0926368
H           0.9514938    -0.1026651     6.8520155
C           0.7483567    -0.7752851     4.8194935
H          -0.0517021    -0.0725766     4.5957916
C           1.1953938    -1.6551274     3.8228529
C           2.2372739    -2.5406141     4.1219860
H           2.5954735    -3.2387678     3.3742878
C           2.8094480    -2.5471922     5.3960045
H           3.6181899    -3.2402250     5.6111187
28
387_C13H12O2S_11-12-23-24 (0,) energy =   -1051.1799416
C          -1.4382006    -1.4701646    -2.4321044
H          -2.0920017    -1.2363534    -3.2678228
C          -1.7063890    -2.5829871    -1.6310923
H          -2.5621126    -3.2167131    -1.8457681
C          -0.8685985    -2.8900115    -0.5586063
H          -1.0449203    -3.7637015     0.0605189
C           0.2301876    -2.0673445    -0.3027112
C           0.5168821    -0.9589702    -1.1019058
H           1.3980840    -0.3596508    -0.8967515
C          -0.3283823    -0.6623891    -2.1714686
H          -0.1158104     0.1934241    -2.8057483
S           1.3182609    -2.4590526     1.0806610
C           0.5496013    -1.5201619     2.4491801
H          -0.4824071    -1.8853236     2.4996815
H           0.5199214    -0.4820297     2.0990159
O           1.1803058    -3.8969099     1.3679940
O           2.6370274    -1.8681596     0.7970514
C           2.3435758    -1.6794262     6.3853096
H           2.7769423    -1.7051093     7.3814028
C           1.1936287    -0.9273133     6.1370247
H           0.7243484    -0.3625435     6.9381760
C           0.6430033    -0.8988775     4.8574360
H          -0.2530380    -0.3098634     4.6723443
C           1.2280370    -1.6188087     3.8050156
C           2.3805603    -2.3694659     4.0606786
H           2.8587212    -2.9356194     3.2701473
C           2.9308402    -2.3964780     5.3444867
H           3.8260827    -2.9849980     5.5253934
28
387_C13H12O2S_11-12-23-24 (15,) energy =   -1051.1806445
C          -1.4598241    -1.4341096    -2.4575590
H          -2.0962416    -1.1753315    -3.2993174
C          -1.8178206    -2.4894892    -1.6149016
H          -2.7263632    -3.0541780    -1.8036148
C          -1.0031999    -2.8283558    -0.5341793
H          -1.2498951    -3.6598580     0.1181786
C           0.1639798    -2.0948820    -0.3124872
C           0.5402962    -1.0456544    -1.1533368
H           1.4709767    -0.5173626    -0.9731916
C          -0.2828403    -0.7163726    -2.2305876
H          -0.0011507     0.0941010    -2.8967118
S           1.2210900    -2.5260188     1.0834192
C           0.5465255    -1.4636750     2.4128714
H          -0.5157963    -1.7200507     2.4781675
H           0.6209495    -0.4444837     2.0139293
O           0.9618452    -3.9330298     1.4292709
O           2.5844617    -2.0627237     0.7687613
C           2.2992077    -1.7082895     6.3619667
H           2.7205386    -1.7614821     7.3621417
C           1.0583366    -1.1036989     6.1526353
H           0.5051815    -0.6841113     6.9886809
C           0.5190490    -1.0461523     4.8688822
H          -0.4540741    -0.5841351     4.7155697
C           1.2145086    -1.5753881     3.7718194
C           2.4571071    -2.1818345     3.9891535
H           3.0213410    -2.5897304     3.1584630
C           2.9913831    -2.2460750     5.2779421
H           3.9566752    -2.7214071     5.4292579
28
387_C13H12O2S_11-12-23-24 (30,) energy =   -1051.1821196
C          -1.4370692    -1.4351935    -2.4571204
H          -2.0614175    -1.1683774    -3.3053840
C          -1.8636765    -2.4206303    -1.5632237
H          -2.8138163    -2.9236420    -1.7186560
C          -1.0651555    -2.7691507    -0.4736684
H          -1.3666715    -3.5483456     0.2190013
C           0.1560797    -2.1161661    -0.2949819
C           0.6004702    -1.1382941    -1.1870028
H           1.5696299    -0.6732256    -1.0384750
C          -0.2074247    -0.7982683    -2.2725534
H           0.1267054    -0.0426555    -2.9777839
S           1.1898331    -2.5574429     1.1156688
C           0.6095939    -1.3789774     2.3960725
H          -0.4745442    -1.5146357     2.4512797
H           0.8042350    -0.3911588     1.9596696
O           0.8294003    -3.9221039     1.5317701
O           2.5813223    -2.2128404     0.7693171
C           2.2995765    -1.7367651     6.3608366
H           2.7098208    -1.8195165     7.3636422
C           0.9965620    -1.2746787     6.1706377
H           0.3833265    -0.9977666     7.0240002
C           0.4715252    -1.1807548     4.8824252
H          -0.5502784    -0.8343357     4.7432587
C           1.2446000    -1.5244452     3.7646397
C           2.5500018    -1.9931002     3.9631754
H           3.1642978    -2.2658924     3.1121659
C           3.0690096    -2.0975036     5.2545609
H           4.0822852    -2.4649087     5.3924039
28
387_C13H12O2S_11-12-23-24 (45,) energy =   -1051.1837561
C          -1.4127231    -1.4379803    -2.4739749
H          -2.0146843    -1.1637172    -3.3359494
C          -1.9144420    -2.3441680    -1.5362582
H          -2.9009312    -2.7784432    -1.6712577
C          -1.1453526    -2.7021477    -0.4287487
H          -1.5059600    -3.4218077     0.2991830
C           0.1232544    -2.1387734    -0.2769353
C           0.6417912    -1.2409296    -1.2120473
H           1.6443439    -0.8462948    -1.0826791
C          -0.1373272    -0.8904083    -2.3151685
H           0.2544323    -0.1969642    -3.0538398
S           1.1184928    -2.5907503     1.1578393
C           0.6415380    -1.3046557     2.3828036
H          -0.4508479    -1.3273100     2.4281005
H           0.9457332    -0.3612194     1.9134121
O           0.6476818    -3.8982417     1.6409248
O           2.5331472    -2.3766702     0.7992849
C           2.2966020    -1.7837095     6.3442339
H           2.7037254    -1.8984100     7.3451801
C           0.9469304    -1.4785025     6.1665328
H           0.2947615    -1.3569720     7.0272158
C           0.4270104    -1.3407903     4.8795857
H          -0.6289180    -1.1162478     4.7472401
C           1.2501094    -1.4839658     3.7549931
C           2.6040913    -1.7990931     3.9406951
H           3.2501508    -1.9299882     3.0790898
C           3.1191632    -1.9471455     5.2283151
H           4.1694785    -2.1938545     5.3576639
28
387_C13H12O2S_11-12-23-24 (60,) energy =   -1051.1851575
C          -1.3603045    -1.4328181    -2.4989542
H          -1.9254750    -1.1466468    -3.3817061
C          -1.9533211    -2.2432722    -1.5275802
H          -2.9740309    -2.5919094    -1.6565523
C          -1.2321309    -2.6160876    -0.3930564
H          -1.6655244    -3.2638799     0.3621448
C           0.0812779    -2.1645317    -0.2484500
C           0.6898859    -1.3634524    -1.2166374
H           1.7229530    -1.0559641    -1.0908803
C          -0.0417821    -0.9968013    -2.3466304
H           0.4199314    -0.3782812    -3.1110019
S           1.0131559    -2.6309005     1.2236162
C           0.6427679    -1.2477663     2.3840849
H          -0.4475587    -1.1817225     2.4322145
H           1.0256263    -0.3551193     1.8769634
O           0.4174793    -3.8626483     1.7646198
O           2.4458170    -2.5633146     0.8820691
C           2.3332618    -1.8142743     6.3115973
H           2.7540699    -1.9550562     7.3035264
C           0.9526050    -1.6999921     6.1469982
H           0.2917935    -1.7540765     7.0078919
C           0.4149317    -1.5242492     4.8719030
H          -0.6623855    -1.4457116     4.7468770
C           1.2491362    -1.4427843     3.7501391
C           2.6359303    -1.5678773     3.9220410
H           3.2895808    -1.5308404     3.0566045
C           3.1711982    -1.7513218     5.1960808
H           4.2467605    -1.8478131     5.3166464
28
387_C13H12O2S_11-12-23-24 (75,) energy =   -1051.1860202
C          -1.3085380    -2.0803214    -2.5622431
H          -1.8037231    -2.3812485    -3.4813828
C           0.0558019    -2.3299599    -2.3940236
H           0.6219183    -2.8179804    -3.1822969
C           0.6976764    -1.9436822    -1.2170826
H           1.7612772    -2.1064105    -1.0756070
C          -0.0453213    -1.3107070    -0.2185691
C          -1.4068676    -1.0454178    -0.3778418
H          -1.9489767    -0.5227402     0.4035199
C          -2.0375761    -1.4366601    -1.5592410
H          -3.0950767    -1.2317340    -1.6997125
S           0.7738633    -0.8255626     1.3129187
C           0.5555256    -2.3139209     2.3828072
H           0.9903383    -3.1472050     1.8240838
H          -0.5275040    -2.4569244     2.4508176
O           2.2100095    -0.6750357     1.0285501
O          -0.0067776     0.2728049     1.9090516
C           2.4324070    -1.7788599     6.2233546
H           2.9062537    -1.6443722     7.1919767
C           3.0330963    -2.5853465     5.2556625
H           3.9779768    -3.0790188     5.4656084
C           2.4233742    -2.7563382     4.0130253
H           2.8976345    -3.3779041     3.2577841
C           1.2017112    -2.1337158     3.7284582
C           0.6091893    -1.3164079     4.7017483
H          -0.3252757    -0.8099305     4.4798411
C           1.2213115    -1.1428663     5.9419550
H           0.7523963    -0.5084046     6.6890327
28
387_C13H12O2S_11-12-23-24 (90,) energy =   -1051.1862401
C          -1.3529742    -2.0489477    -2.5461675
H          -1.8844024    -2.3248616    -3.4528318
C          -0.0203723    -2.4332247    -2.3775630
H           0.4855766    -3.0011396    -3.1531404
C           0.6679525    -2.0793135    -1.2167840
H           1.7104350    -2.3462226    -1.0765124
C           0.0028615    -1.3424833    -0.2347717
C          -1.3254873    -0.9432260    -0.3946362
H          -1.8037366    -0.3437642     0.3732008
C          -2.0031487    -1.3030308    -1.5598741
H          -3.0350177    -0.9942800    -1.7011317
S           0.8805887    -0.8951523     1.2753592
C           0.5380349    -2.3247122     2.3929875
H           0.9191347    -3.2036401     1.8651067
H          -0.5517980    -2.3900602     2.4582166
O           2.3220921    -0.8967952     0.9743730
O           0.2189397     0.2904044     1.8453221
C           2.4010994    -1.7555374     6.2330987
H           2.8710210    -1.6124197     7.2023932
C           3.1002590    -2.3863390     5.2022415
H           4.1172747    -2.7323926     5.3648807
C           2.4964251    -2.5727158     3.9594894
H           3.0451992    -3.0539632     3.1546423
C           1.1840511    -2.1355582     3.7361865
C           0.4927543    -1.4936048     4.7720841
H          -0.5184726    -1.1350798     4.6002215
C           1.0968806    -1.3076345     6.0147805
H           0.5495056    -0.8115717     6.8115480
28
387_C13H12O2S_11-12-23-24 (105,) energy =   -1051.1859962
C          -1.3916648    -2.0454147    -2.5280782
H          -1.9543149    -2.3141330    -3.4179073
C          -0.0944181    -2.5334331    -2.3524907
H           0.3535617    -3.1748518    -3.1061005
C           0.6338831    -2.1896139    -1.2132277
H           1.6514978    -2.5379710    -1.0692861
C           0.0440002    -1.3580173    -0.2592503
C          -1.2475819    -0.8546612    -0.4271229
H          -1.6655096    -0.1846778     0.3173185
C          -1.9657787    -1.2053821    -1.5706211
H          -2.9694170    -0.8166597    -1.7177192
S           0.9708466    -0.9237351     1.2254249
C           0.5192020    -2.2743313     2.3993228
H           0.8301017    -3.1979860     1.9011339
H          -0.5719822    -2.2561485     2.4668601
O           2.4044902    -1.0620188     0.9141680
O           0.4211810     0.3376073     1.7477761
C           2.3801344    -1.7651013     6.2512639
H           2.8476980    -1.6411695     7.2243310
C           3.1356026    -2.2046334     5.1619397
H           4.1934873    -2.4203778     5.2840106
C           2.5374278    -2.3688699     3.9136834
H           3.1283554    -2.6998717     3.0650259
C           1.1736051    -2.0923074     3.7410723
C           0.4244252    -1.6456664     4.8365391
H          -0.6315881    -1.4216683     4.7087232
C           1.0228538    -1.4856350     6.0861760
H           0.4291284    -1.1413893     6.9285493
28
387_C13H12O2S_11-12-23-24 (120,) energy =   -1051.1852232
C          -1.4362460    -2.0490771    -2.5092065
H          -2.0335551    -2.3087561    -3.3788976
C          -0.1837012    -2.6399645    -2.3254829
H           0.1952373    -3.3525214    -3.0525902
C           0.5893437    -2.3084647    -1.2123020
H           1.5750268    -2.7373011    -1.0635646
C           0.0881423    -1.3854913    -0.2922779
C          -1.1572570    -0.7792882    -0.4691309
H          -1.5039696    -0.0416734     0.2474707
C          -1.9207053    -1.1185348    -1.5864395
H          -2.8889635    -0.6508411    -1.7405789
S           1.0729413    -0.9623286     1.1582181
C           0.5291834    -2.2186052     2.3920538
H           0.7770963    -3.1819775     1.9331667
H          -0.5588306    -2.1276306     2.4501033
O           2.4848077    -1.2326215     0.8304580
O           0.6413621     0.3638857     1.6269452
C           2.3326441    -1.7942504     6.2866357
H           2.7819146    -1.6991239     7.2714880
C           3.1367687    -2.0261003     5.1685146
H           4.2143277    -2.1099915     5.2803794
C           2.5650052    -2.1541508     3.9036685
H           3.1937691    -2.3276572     3.0363785
C           1.1760937    -2.0396996     3.7417341
C           0.3768524    -1.8073161     4.8676991
H          -0.7007276    -1.7181179     4.7526820
C           0.9501168    -1.6868801     6.1338151
H           0.3161837    -1.5071787     6.9978505
28
387_C13H12O2S_11-12-23-24 (135,) energy =   -1051.1839576
C          -1.4915536    -2.0332150    -2.4832600
H          -2.1238328    -2.2751554    -3.3331165
C          -0.2921974    -2.7233753    -2.2911180
H           0.0109356    -3.4958235    -2.9921285
C           0.5255722    -2.4150646    -1.2034731
H           1.4727836    -2.9217725    -1.0497434
C           0.1218698    -1.4145431    -0.3172221
C          -1.0688688    -0.7092667    -0.5032042
H          -1.3379256     0.0851269     0.1855456
C          -1.8776507    -1.0263944    -1.5947479
H          -2.8039575    -0.4823770    -1.7559558
S           1.1669955    -1.0151392     1.0974574
C           0.5390880    -2.1652299     2.3878032
H           0.7193770    -3.1639311     1.9727432
H          -0.5411549    -2.0011047     2.4326310
O           2.5440850    -1.4196802     0.7575264
O           0.8610471     0.3634565     1.5104858
C           2.2936973    -1.8198010     6.3180298
H           2.7265353    -1.7508553     7.3123824
C           3.1186498    -1.8355291     5.1917565
H           4.1976191    -1.7783637     5.3070646
C           2.5697978    -1.9291085     3.9132068
H           3.2175085    -1.9450086     3.0429963
C           1.1783809    -1.9899059     3.7460731
C           0.3577441    -1.9781766     4.8811274
H          -0.7222507    -2.0304287     4.7638172
C           0.9098032    -1.8950986     6.1595727
H           0.2575127    -1.8853011     7.0286295
28
387_C13H12O2S_11-12-23-24 (150,) energy =   -1051.1823545
C          -1.5265020    -2.0237000    -2.4682064
H          -2.1820433    -2.2522109    -3.3040333
C          -0.3869628    -2.8009838    -2.2467691
H          -0.1530917    -3.6279330    -2.9111613
C           0.4603496    -2.5106763    -1.1769589
H           1.3633460    -3.0864439    -1.0016571
C           0.1457525    -1.4399774    -0.3378019
C          -0.9835552    -0.6477892    -0.5539836
H          -1.1817565     0.1973309     0.0974243
C          -1.8225349    -0.9477231    -1.6274673
H          -2.7017528    -0.3370926    -1.8120138
S           1.2302146    -1.0620469     1.0529810
C           0.5157778    -2.0959473     2.3901587
H           0.6039713    -3.1232698     2.0155957
H          -0.5469160    -1.8387636     2.4260523
O           2.5678346    -1.5901253     0.7262615
O           1.0403893     0.3543622     1.4040446
C           2.2691102    -1.8435889     6.3327881
H           2.6983697    -1.8000573     7.3301111
C           3.0758965    -1.6504616     5.2110063
H           4.1384440    -1.4573396     5.3310253
C           2.5325024    -1.7090106     3.9270322
H           3.1751589    -1.5759390     3.0635571
C           1.1614890    -1.9410530     3.7519409
C           0.3594180    -2.1432437     4.8834323
H          -0.7045036    -2.3341123     4.7605081
C           0.9070181    -2.0961391     6.1649795
H           0.2678530    -2.2516999     7.0299562
28
387_C13H12O2S_11-12-23-24 (165,) energy =   -1051.1807563
C          -1.5394765    -2.0165440    -2.4631656
H          -2.2067901    -2.2307782    -3.2934292
C          -0.4644472    -2.8687734    -2.1988272
H          -0.2919722    -3.7397939    -2.8245481
C           0.3978639    -2.5974515    -1.1361430
H           1.2529628    -3.2325681    -0.9285175
C           0.1632367    -1.4694365    -0.3474770
C          -0.9000983    -0.6026698    -0.6073139
H          -1.0347899     0.2838754     0.0040296
C          -1.7552781    -0.8847067    -1.6729118
H          -2.5838582    -0.2170179    -1.8910557
S           1.2719179    -1.1123087     1.0292535
C           0.4682061    -2.0096304     2.4079612
H           0.4199098    -3.0509587     2.0667786
H          -0.5551943    -1.6228303     2.4489632
O           2.5618689    -1.7648315     0.7412668
O           1.2001730     0.3317016     1.3054481
C           2.2746304    -1.8837874     6.3373270
H           2.7122776    -1.8692423     7.3317907
C           3.0295390    -1.4983853     5.2303823
H           4.0617866    -1.1838500     5.3576112
C           2.4748387    -1.5175128     3.9488821
H           3.0873395    -1.2372635     3.0996419
C           1.1431796    -1.9074640     3.7638796
C           0.3928478    -2.3026736     4.8809670
H          -0.6410777    -2.6156491     4.7506778
C           0.9517268    -2.2918549     6.1576435
H           0.3520195    -2.5984551     7.0104888
28
387_C13H12O2S_11-12-23-24 (180,) energy =   -1051.1799432
C          -1.5424420    -1.9729630    -2.4494913
H          -2.2279455    -2.1516699    -3.2733121
C          -0.5530286    -2.9140526    -2.1537172
H          -0.4647289    -3.8186194    -2.7486191
C           0.3322898    -2.6893653    -1.0991572
H           1.1235935    -3.3950302    -0.8674759
C           0.2066057    -1.5174167    -0.3507414
C          -0.7696309    -0.5627703    -0.6423404
H          -0.8186426     0.3532732    -0.0624633
C          -1.6489786    -0.7990352    -1.6993784
H          -2.4106750    -0.0636702    -1.9422679
S           1.3466315    -1.2198750     1.0141733
C           0.4611284    -1.9808671     2.4219037
H           0.2861542    -3.0193054     2.1182918
H          -0.5102355    -1.4743586     2.4536182
O           2.5688373    -2.0005170     0.7580713
O           1.4120015     0.2343695     1.2370621
C           2.2747860    -1.8954299     6.3508109
H           2.7107357    -1.8855656     7.3460525
C           2.9522864    -1.3144140     5.2804046
H           3.9211695    -0.8482075     5.4368192
C           2.3984097    -1.3229974     3.9978610
H           2.9467268    -0.8643610     3.1834921
C           1.1522437    -1.9176760     3.7732367
C           0.4762391    -2.5003083     4.8556767
H          -0.4940302    -2.9659395     4.6948020
C           1.0304063    -2.4906944     6.1339789
H           0.4900798    -2.9477936     6.9586816
