24
147_C7H16N+_16-0-7-3 (-165,) energy =    -330.9128891
C           2.3379564    -1.2695669    -0.3614264
H           2.3173226    -2.0486237     0.4072033
H           1.4110679    -0.6933797    -0.2892994
C           3.7900696     0.0276564     1.2490538
H           4.6694020     0.6715785     1.3335579
H           3.9468081    -0.8428626     1.8948533
H           2.9305847     0.5880920     1.6327020
C           3.5822398    -0.3928263    -0.2123177
H           3.5009334     0.4931683    -0.8519722
H           4.4659417    -0.9533873    -0.5509139
C           1.1129008    -3.3324954    -3.3158782
H           0.0837164    -3.5229052    -3.6272325
H           1.6878299    -4.2363577    -3.5347225
C           1.1626845    -3.0079266    -1.8165662
H           1.3694856    -3.8568664    -1.1622028
H           0.2603988    -2.4997929    -1.4665380
N           2.2895088    -1.9979328    -1.6870741
H           3.1751500    -2.5081196    -1.7842036
C           2.1365065    -1.1204562    -2.9181864
H           3.0667160    -0.5788647    -3.0931226
H           1.3457917    -0.4042467    -2.6794015
C           1.7320371    -2.0957242    -4.0348607
H           2.6020678    -2.3873831    -4.6290023
H           1.0258858    -1.6144199    -4.7147748
24
147_C7H16N+_16-0-7-3 (-150,) energy =    -330.9112607
C           2.2610582    -1.1700819    -0.3509056
H           2.2214496    -1.9187416     0.4466262
H           1.3261503    -0.6035548    -0.3322686
C           3.8844039    -0.0859266     1.2743281
H           4.7558214     0.5692777     1.3554072
H           4.1350549    -1.0419951     1.7463388
H           3.0706767     0.3740289     1.8456009
C           3.5018622    -0.2791771    -0.1990969
H           3.3351373     0.6878137    -0.6854349
H           4.3512810    -0.7478903    -0.7183644
C           1.1549200    -3.3657899    -3.2576690
H           0.1366314    -3.5645863    -3.5982315
H           1.7327203    -4.2795623    -3.4200215
C           1.1510700    -2.9821809    -1.7706292
H           1.3426301    -3.8030440    -1.0769821
H           0.2329309    -2.4701616    -1.4713625
N           2.2641512    -1.9572421    -1.6425184
H           3.1570925    -2.4619054    -1.6859587
C           2.1484074    -1.1330269    -2.9136165
H           3.0762703    -0.5819496    -3.0719018
H           1.3368803    -0.4221273    -2.7366440
C           1.8050776    -2.1604311    -4.0026361
H           2.7055791    -2.4741988    -4.5373429
H           1.1327815    -1.7159836    -4.7395581
24
147_C7H16N+_16-0-7-3 (-135,) energy =    -330.9092152
C           2.1836189    -1.0608411    -0.3541394
H           2.0943073    -1.7765242     0.4688279
H           1.2538253    -0.4886432    -0.4064087
C           3.9758226    -0.2117957     1.2559418
H           4.8490976     0.4396373     1.3483610
H           4.2800206    -1.2260217     1.5376186
H           3.2283171     0.1325005     1.9788239
C           3.4311362    -0.1725376    -0.1778806
H           3.2007870     0.8553249    -0.4754088
H           4.2241427    -0.5142774    -0.8591766
C           1.1956588    -3.3877489    -3.2015329
H           0.1898463    -3.6073192    -3.5656000
H           1.7837381    -4.3030248    -3.3088905
C           1.1421099    -2.9446115    -1.7316982
H           1.3227960    -3.7342056    -0.9998926
H           0.2089666    -2.4336893    -1.4808123
N           2.2376758    -1.8999459    -1.6115958
H           3.1377099    -2.3938982    -1.6081634
C           2.1480239    -1.1300725    -2.9184820
H           3.0684784    -0.5648136    -3.0697909
H           1.3161599    -0.4311600    -2.7969390
C           1.8617328    -2.2083573    -3.9736057
H           2.7871088    -2.5333883    -4.4567943
H           1.2152536    -1.8059102    -4.7563513
24
147_C7H16N+_16-0-7-3 (-120,) energy =    -330.9080110
C           2.0900700    -0.9557000    -0.4021828
H           1.9176440    -1.6312639     0.4406406
H           1.1844747    -0.3614064    -0.5478099
C           4.0233356    -0.3592113     1.1752744
H           4.9089601     0.2714176     1.2923927
H           4.3427147    -1.4041051     1.2662985
H           3.3460358    -0.1384303     2.0070855
C           3.3492380    -0.0897643    -0.1762005
H           3.0753776     0.9668476    -0.2557672
H           4.0747697    -0.2665501    -0.9823941
C           1.2339599    -3.4160079    -3.1800664
H           0.2434373    -3.6659147    -3.5658339
H           1.8379562    -4.3257997    -3.2304197
C           1.1278044    -2.9127648    -1.7326670
H           1.2994531    -3.6675678    -0.9629611
H           0.1789358    -2.4087588    -1.5313010
N           2.2010395    -1.8438831    -1.6230678
H           3.1086500    -2.3214775    -1.5725005
C           2.1375469    -1.1316076    -2.9639799
H           3.0497368    -0.5524704    -3.1121513
H           1.2875323    -0.4473126    -2.8984361
C           1.9077711    -2.2597048    -3.9797617
H           2.8552112    -2.5885027    -4.4153448
H           1.2832421    -1.9033047    -4.8016821
24
147_C7H16N+_16-0-7-3 (-105,) energy =    -330.9084324
C           1.9952277    -0.8757112    -0.4537181
H           1.7522698    -1.5118797     0.4019547
H           1.1149631    -0.2707416    -0.6863239
C           4.0522906    -0.4976518     1.0385872
H           4.9275918     0.1394812     1.1926098
H           4.4124043    -1.5274022     0.9196452
H           3.4451618    -0.4563948     1.9489136
C           3.2493582    -0.0217871    -0.1788914
H           2.9257634     1.0114995    -0.0167391
H           3.8896702     0.0119535    -1.0697748
C           1.2557285    -3.4316633    -3.1791683
H           0.2791526    -3.6849072    -3.5969994
H           1.8514145    -4.3482116    -3.1744954
C           1.0952609    -2.8785492    -1.7550726
H           1.2369345    -3.6060747    -0.9536623
H           0.1397059    -2.3685989    -1.6072367
N           2.1635802    -1.8044998    -1.6394140
H           3.0675324    -2.2801777    -1.5327289
C           2.1561354    -1.1427512    -3.0073019
H           3.0718795    -0.5661227    -3.1406337
H           1.3020176    -0.4604490    -3.0042976
C           1.9738002    -2.3093074    -3.9881300
H           2.9413116    -2.6566712    -4.3608111
H           1.3941076    -1.9841981    -4.8546686
24
147_C7H16N+_16-0-7-3 (-90,) energy =    -330.9102498
C           1.9301127    -0.8097262    -0.3931102
H           1.6488501    -1.4173115     0.4716291
H           1.0666842    -0.2033043    -0.6803861
C           4.1229007    -0.5913713     0.9259563
H           4.9809580     0.0616825     1.1078840
H           4.5222577    -1.5563155     0.5847310
H           3.6187409    -0.7569740     1.8836483
C           3.1699887     0.0451356    -0.0940687
H           2.8082650     0.9994475     0.3043018
H           3.6965444     0.2988208    -1.0220284
C           1.2789235    -3.4354837    -3.0737225
H           0.3172116    -3.6941595    -3.5216478
H           1.8666998    -4.3555552    -3.0194775
C           1.0682324    -2.8400836    -1.6738695
H           1.1712122    -3.5455165    -0.8471939
H           0.1125096    -2.3180002    -1.5783667
N           2.1412276    -1.7721495    -1.5458354
H           3.0349942    -2.2519835    -1.3850403
C           2.1995241    -1.1510636    -2.9313297
H           3.1306608    -0.5957484    -3.0453809
H           1.3590917    -0.4538720    -2.9827033
C           2.0364017    -2.3423081    -3.8861713
H           3.0118233    -2.7095860    -4.2165616
H           1.4899501    -2.0343048    -4.7801254
24
147_C7H16N+_16-0-7-3 (-75,) energy =    -330.9122149
C           1.8552321    -0.7881617    -0.3822098
H           1.5500024    -1.3766996     0.4880360
H           1.0004721    -0.1916477    -0.7133924
C           4.1723852    -0.6502972     0.7203028
H           4.9936009     0.0338552     0.9507309
H           4.6118173    -1.4881117     0.1605478
H           3.7889766    -1.0430652     1.6680500
C           3.0728470     0.0803554    -0.0610068
H           2.6979311     0.9124506     0.5464376
H           3.4690759     0.5401032    -0.9741133
C           1.3032901    -3.4513067    -3.0469472
H           0.3642224    -3.6926437    -3.5493270
H           1.8602373    -4.3857364    -2.9393399
C           1.0226113    -2.8225144    -1.6742384
H           1.0549283    -3.5137031    -0.8299625
H           0.0770123    -2.2745989    -1.6487022
N           2.1139819    -1.7803677    -1.4992963
H           2.9824637    -2.2779211    -1.2700575
C           2.2811713    -1.1907149    -2.8890353
H           3.2370783    -0.6703630    -2.9524865
H           1.4708654    -0.4666252    -3.0084468
C           2.1398906    -2.3956779    -3.8306709
H           3.1222314    -2.7968283    -4.0943822
H           1.6578522    -2.0900543    -4.7617240
24
147_C7H16N+_16-0-7-3 (-60,) energy =    -330.9129807
C           2.7402447    -2.0419845     0.1237563
H           3.4220164    -2.8870819     0.2611881
H           1.7924245    -2.2788643     0.6150476
C           4.6900403    -0.3627642     0.0057633
H           5.1143829     0.5125340     0.5050567
H           4.5836345    -0.0887076    -1.0532771
H           5.4260617    -1.1717019     0.0784600
C           3.3575100    -0.7499050     0.6600510
H           3.5120189    -0.9162526     1.7324002
H           2.6363433     0.0729308     0.5874905
C           1.3709616    -2.9507742    -3.3118434
H           0.4800505    -3.5597118    -3.4793079
H           2.0584523    -3.1518233    -4.1370179
C           2.0092071    -3.3159772    -1.9600194
H           2.8778496    -3.9743677    -2.0189594
H           1.2886850    -3.7434470    -1.2583005
N           2.4416028    -1.9881817    -1.3599878
H           3.3061904    -1.6998841    -1.8320741
C           1.3528185    -1.0198964    -1.7843311
H           1.7090245     0.0040990    -1.6662586
H           0.5140931    -1.1892290    -1.1034519
C           1.0355306    -1.4318931    -3.2264621
H           1.6460931    -0.8594241    -3.9308171
H          -0.0095288    -1.2199629    -3.4620744
24
147_C7H16N+_16-0-7-3 (-45,) energy =    -330.9119368
C           2.6880346    -2.0677405     0.1645671
H           3.3137825    -2.9519711     0.3227322
H           1.7181313    -2.2458785     0.6360389
C           4.5666638    -0.3086864    -0.1199965
H           5.0685540     0.5081175     0.4057000
H           4.2616180     0.0977809    -1.0934394
H           5.3175898    -1.0910625    -0.2876981
C           3.3792791    -0.8126447     0.7116504
H           3.7116661    -1.0659924     1.7240469
H           2.6448339    -0.0067318     0.8284018
C           1.3985735    -2.9476654    -3.3078266
H           0.4908797    -3.5217948    -3.5053905
H           2.1073762    -3.1806538    -4.1061541
C           1.9721459    -3.3301066    -1.9317720
H           2.8128499    -4.0259232    -1.9557614
H           1.2093002    -3.7205540    -1.2536536
N           2.4403690    -2.0173518    -1.3267643
H           3.3305702    -1.7671486    -1.7718307
C           1.4048647    -1.0098185    -1.7910987
H           1.7958024     0.0001829    -1.6609143
H           0.5374943    -1.1451965    -1.1392063
C           1.1208799    -1.4159357    -3.2416121
H           1.7773038    -0.8722373    -3.9272778
H           0.0936195    -1.1646891    -3.5139938
24
147_C7H16N+_16-0-7-3 (-30,) energy =    -330.9091702
C           2.6300559    -2.0638414     0.1997624
H           3.1540232    -3.0063094     0.3860506
H           1.6364168    -2.1360157     0.6480536
C           4.4915408    -0.2760057    -0.1908448
H           5.0738997     0.4805832     0.3419188
H           4.0424468     0.2339068    -1.0520106
H           5.2099390    -1.0222234    -0.5562553
C           3.4447841    -0.8789673     0.7573573
H           3.9306016    -1.2366104     1.6704909
H           2.7575830    -0.0846693     1.0699832
C           1.4430109    -2.9631103    -3.3043617
H           0.5368091    -3.5306378    -3.5262518
H           2.1751284    -3.2097210    -4.0771647
C           1.9686295    -3.3383591    -1.9072602
H           2.8039374    -4.0410177    -1.8983251
H           1.1813558    -3.7164403    -1.2503567
N           2.4290331    -2.0242894    -1.2991213
H           3.3333950    -1.7828284    -1.7195678
C           1.4122842    -1.0161802    -1.8035367
H           1.7985946    -0.0060165    -1.6617650
H           0.5222182    -1.1492232    -1.1826220
C           1.1780825    -1.4281555    -3.2606596
H           1.8650907    -0.8961059    -3.9252812
H           0.1641887    -1.1690141    -3.5728226
24
147_C7H16N+_16-0-7-3 (-15,) energy =    -330.9059508
C           2.5599767    -2.0383570     0.2107791
H           2.9561259    -3.0325578     0.4345857
H           1.5540896    -1.9794843     0.6318863
C           4.4186776    -0.2263932    -0.2295523
H           5.0646284     0.4714461     0.3102206
H           3.8629931     0.3704600    -0.9617553
H           5.0906538    -0.9117959    -0.7646515
C           3.5052671    -0.9456082     0.7747856
H           4.1169075    -1.4185848     1.5484484
H           2.8996637    -0.1897967     1.2853951
C           1.4610749    -2.9860167    -3.3119930
H           0.5601992    -3.5545813    -3.5521702
H           2.2151775    -3.2459599    -4.0588715
C           1.9437871    -3.3406958    -1.8945250
H           2.7742355    -4.0477534    -1.8493689
H           1.1354447    -3.7028656    -1.2543857
N           2.3947259    -2.0191848    -1.2950041
H           3.3084014    -1.7861568    -1.6995945
C           1.3911654    -1.0187140    -1.8414933
H           1.7704289    -0.0060159    -1.7007580
H           0.4838987    -1.1468252    -1.2450108
C           1.1993365    -1.4498024    -3.2988213
H           1.9072029    -0.9289451    -3.9503030
H           0.1957593    -1.1928893    -3.6444348
24
147_C7H16N+_16-0-7-3 (0,) energy =    -330.9038981
C           2.5397591    -1.9983764     0.2192397
H           2.8093877    -3.0215006     0.4912120
H           1.5385716    -1.8070003     0.6110723
C           4.3691447    -0.1393759    -0.2361374
H           5.0794308     0.4901669     0.3068937
H           3.7256663     0.5377503    -0.8080463
H           4.9711030    -0.7353364    -0.9364604
C           3.5938315    -0.9986717     0.7745188
H           4.3123659    -1.5727475     1.3666846
H           3.0861536    -0.3309377     1.4770754
C           1.4838777    -3.0120509    -3.3020776
H           0.5817994    -3.5757285    -3.5491608
H           2.2509228    -3.2972328    -4.0262773
C           1.9314852    -3.3391068    -1.8671375
H           2.7475743    -4.0596748    -1.7867813
H           1.1035983    -3.6695935    -1.2348204
N           2.3946206    -2.0107180    -1.2916292
H           3.3156354    -1.8011050    -1.6919264
C           1.4128815    -1.0105346    -1.8783979
H           1.8022595     0.0000965    -1.7549410
H           0.4942251    -1.1141992    -1.2948150
C           1.2402443    -1.4729281    -3.3284214
H           1.9646217    -0.9752832    -3.9798647
H           0.2454698    -1.2125644    -3.6962532
24
147_C7H16N+_16-0-7-3 (15,) energy =    -330.9039763
C           2.5567220    -1.9672099     0.2289883
H           2.7361846    -2.9987917     0.5387749
H           1.5667190    -1.6809367     0.5922447
C           4.2876880     0.0033009    -0.1662391
H           5.0717394     0.5450525     0.3700459
H           3.5668994     0.7516675    -0.5118163
H           4.7778834    -0.4460770    -1.0407300
C           3.6702167    -1.0368398     0.7806645
H           4.4794078    -1.6725550     1.1549978
H           3.2594157    -0.5250297     1.6559756
C           1.4837581    -3.0076227    -3.2790501
H           0.5581065    -3.5313814    -3.5268102
H           2.2463774    -3.3500186    -3.9829401
C           1.8925360    -3.3185476    -1.8299148
H           2.6625194    -4.0840991    -1.7169563
H           1.0381436    -3.5795376    -1.2002575
N           2.4271750    -2.0032607    -1.2845876
H           3.3617344    -1.8602790    -1.6824999
C           1.5104325    -0.9649792    -1.9100759
H           1.9587603     0.0233261    -1.8150484
H           0.5836269    -0.9966391    -1.3311566
C           1.3203666    -1.4594243    -3.3477470
H           2.0716742    -1.0179918    -4.0090208
H           0.3417691    -1.1578091    -3.7273745
24
147_C7H16N+_16-0-7-3 (30,) energy =    -330.9060129
C           2.5371530    -1.9038150     0.1924271
H           2.6308251    -2.9374607     0.5325204
H           1.5680087    -1.5277140     0.5313002
C           4.1776952     0.1449460    -0.0995364
H           5.0197632     0.6230201     0.4085377
H           3.4012744     0.9081948    -0.2202709
H           4.5449426    -0.1421937    -1.0936943
C           3.7069327    -1.0544274     0.7346130
H           4.5654176    -1.7191887     0.8876678
H           3.4085638    -0.7170723     1.7324554
C           1.4519767    -2.9325628    -3.3145592
H           0.5047124    -3.4052371    -3.5824841
H           2.2138847    -3.3330223    -3.9881500
C           1.7990600    -3.2394355    -1.8498903
H           2.5001135    -4.0626421    -1.6995840
H           0.9117005    -3.4121941    -1.2354726
N           2.4277793    -1.9583240    -1.3230644
H           3.3769770    -1.9012745    -1.7087787
C           1.6049707    -0.8652448    -1.9861103
H           2.1324193     0.0845963    -1.9118399
H           0.6742539    -0.8051334    -1.4160190
C           1.3855722    -1.3788195    -3.4139928
H           2.1615647    -0.9984925    -4.0843787
H           0.4270061    -1.0251108    -3.7997578
24
147_C7H16N+_16-0-7-3 (45,) energy =    -330.9084024
C           2.5184009    -1.8636376     0.1792712
H           2.5352238    -2.8872379     0.5607704
H           1.5861263    -1.3951379     0.5069405
C           4.0831577     0.2258434    -0.0380701
H           4.9400863     0.6963576     0.4518864
H           3.2529498     0.9400717     0.0030983
H           4.3685444     0.0831083    -1.0881620
C           3.7518002    -1.0934617     0.6706565
H           4.6235291    -1.7584433     0.6139330
H           3.5859406    -0.9117654     1.7383676
C           1.4258729    -2.9777554    -3.3038400
H           0.4713684    -3.4373030    -3.5688792
H           2.1863812    -3.4157664    -3.9553421
C           1.7492248    -3.2465062    -1.8264465
H           2.4243801    -4.0842261    -1.6416115
H           0.8511833    -3.3727640    -1.2162109
N           2.4092529    -1.9670604    -1.3356977
H           3.3617948    -1.9484524    -1.7179039
C           1.6183487    -0.8745620    -2.0383259
H           2.1679430     0.0644238    -1.9872034
H           0.6851505    -0.7750383    -1.4780259
C           1.3962793    -1.4264788    -3.4515141
H           2.1849544    -1.0850377    -4.1279940
H           0.4485351    -1.0629582    -3.8545052
24
147_C7H16N+_16-0-7-3 (60,) energy =    -330.9097026
C           2.4932296    -1.8188111     0.1432256
H           2.4616141    -2.8295860     0.5576670
H           1.5911534    -1.2894341     0.4623952
C           3.9796461     0.3221360     0.0764741
H           4.8452304     0.7708532     0.5717095
H           3.1142317     0.9615900     0.2844218
H           4.1849793     0.3564095    -1.0003559
C           3.7699529    -1.1061332     0.5935180
H           4.6372324    -1.7316817     0.3402079
H           3.7262212    -1.0959508     1.6890499
C           1.3587990    -3.0152278    -3.3013329
H           0.3883237    -3.4460014    -3.5565012
H           2.1051558    -3.5071175    -3.9304269
C           1.6625716    -3.2417624    -1.8129256
H           2.2977313    -4.1017309    -1.5920088
H           0.7570162    -3.3029710    -1.2037383
N           2.3781192    -1.9758192    -1.3677751
H           3.3318800    -2.0148778    -1.7457855
C           1.6384741    -0.8761147    -2.1143550
H           2.2299189     0.0386277    -2.0963887
H           0.7100785    -0.7126968    -1.5612385
C           1.3926677    -1.4704278    -3.5064724
H           2.1937340    -1.1870584    -4.1950192
H           0.4600016    -1.0838213    -3.9229020
24
147_C7H16N+_16-0-7-3 (75,) energy =    -330.9097090
C           2.5831382    -1.8485798     0.0701010
H           2.6320135    -2.8566605     0.4908704
H           1.6566961    -1.3790625     0.4135754
C           3.7953810     0.4625302     0.2551155
H           4.6564485     0.9242372     0.7465787
H           2.8924745     0.9133162     0.6818565
H           3.8508892     0.7405738    -0.8024487
C           3.8247386    -1.0536850     0.4835593
H           4.7160693    -1.5019058     0.0212953
H           3.9338898    -1.2433485     1.5583384
C           1.2174613    -3.0378816    -3.2831017
H           0.1894113    -3.3411048    -3.4921061
H           1.8692237    -3.6619424    -3.8999042
C           1.5304664    -3.2270792    -1.7918672
H           2.0478423    -4.1543675    -1.5387233
H           0.6428242    -3.1323154    -1.1609603
N           2.4254084    -2.0513199    -1.4288091
H           3.3589425    -2.2458430    -1.8093492
C           1.8380317    -0.8983956    -2.2279717
H           2.5640210    -0.0890057    -2.2875522
H           0.9667015    -0.5558269    -1.6640255
C           1.4588537    -1.5267786    -3.5752751
H           2.2654041    -1.3960382    -4.3021029
H           0.5746332    -1.0342882    -3.9855746
24
147_C7H16N+_16-0-7-3 (90,) energy =    -330.9095054
C           2.6415151    -1.8107534     0.0340531
H           2.7551357    -2.8109014     0.4613936
H           1.7050906    -1.3850797     0.4064288
C           3.5864102     0.5776154     0.4511543
H           4.4917585     1.0988361     0.7750167
H           2.8008226     0.7969553     1.1823843
H           3.2867670     1.0146777    -0.5068446
C           3.8539487    -0.9310434     0.3727580
H           4.6766463    -1.1496226    -0.3236459
H           4.2111891    -1.2708567     1.3514441
C           1.0807194    -2.9029331    -3.2653287
H           0.0124740    -3.0385052    -3.4469421
H           1.6071782    -3.6450847    -3.8705953
C           1.3880400    -3.0940650    -1.7714932
H           1.7766972    -4.0769851    -1.4987574
H           0.5307990    -2.8629146    -1.1342102
N           2.4411496    -2.0443801    -1.4515924
H           3.3360873    -2.3813482    -1.8249336
C           2.0285544    -0.8470349    -2.2903894
H           2.8699836    -0.1599005    -2.3779764
H           1.2202932    -0.3567422    -1.7417124
C           1.5589372    -1.4621287    -3.6148245
H           2.3798617    -1.4904889    -4.3369537
H           0.7658784    -0.8537853    -4.0548347
24
147_C7H16N+_16-0-7-3 (105,) energy =    -330.9086510
C           2.6346382    -1.7495576     0.0037472
H           2.7137792    -2.7260372     0.4889741
H           1.7119005    -1.2738581     0.3477901
C           3.5623266     0.5843392     0.6117099
H           4.4853240     1.1334137     0.8180714
H           2.9315972     0.6492656     1.5045758
H           3.0454225     1.1020011    -0.2046459
C           3.8778623    -0.8778799     0.2719095
H           4.5672409    -0.9354954    -0.5824988
H           4.4210462    -1.3272705     1.1097445
C           1.0642359    -2.9163202    -3.2664730
H          -0.0047287    -3.0156701    -3.4662367
H           1.5717933    -3.7026591    -3.8308024
C           1.3339491    -3.0611413    -1.7594699
H           1.6683372    -4.0497139    -1.4393239
H           0.4781905    -2.7613379    -1.1493390
N           2.4313334    -2.0518938    -1.4662725
H           3.3125903    -2.4432796    -1.8185086
C           2.0803384    -0.8679146    -2.3502387
H           2.9471869    -0.2121952    -2.4404612
H           1.2791581    -0.3335750    -1.8330061
C           1.6096322    -1.5105226    -3.6610174
H           2.4407958    -1.5999715    -4.3662543
H           0.8504200    -0.8866619    -4.1374317
24
147_C7H16N+_16-0-7-3 (120,) energy =    -330.9079232
C           2.6086361    -1.6585409    -0.0239649
H           2.6219527    -2.6020274     0.5276098
H           1.7034368    -1.1146461     0.2606887
C           3.6102690     0.5563051     0.8169410
H           4.5475674     1.0927788     0.9884662
H           3.0945931     0.4736778     1.7795256
H           2.9904250     1.1691491     0.1521103
C           3.8887182    -0.8283326     0.2185503
H           4.4477776    -0.7167635    -0.7207797
H           4.5477687    -1.3918575     0.8865718
C           1.0614189    -2.9744929    -3.2479301
H          -0.0070658    -3.0727683    -3.4507853
H           1.5650650    -3.7910763    -3.7713002
C           1.3192783    -3.0511146    -1.7336097
H           1.6459798    -4.0254547    -1.3655228
H           0.4608737    -2.7188704    -1.1442767
N           2.4201611    -2.0352621    -1.4782363
H           3.3021145    -2.4474950    -1.8043538
C           2.0811700    -0.8920777    -2.4190163
H           2.9487351    -0.2405134    -2.5303557
H           1.2743926    -0.3350742    -1.9352924
C           1.6235015    -1.5939345    -3.7034838
H           2.4636633    -1.7239285    -4.3916130
H           0.8761104    -0.9883424    -4.2204439
24
147_C7H16N+_16-0-7-3 (135,) energy =    -330.9085009
C           2.5704392    -1.5406350    -0.0760719
H           2.5248121    -2.4447487     0.5362761
H           1.6842205    -0.9386341     0.1454005
C           3.6546848     0.5099941     1.0017071
H           4.6044206     1.0250793     1.1695854
H           3.2333877     0.2649738     1.9826412
H           2.9740811     1.2099450     0.5042763
C           3.8745211    -0.7507154     0.1553042
H           4.3092005    -0.4547891    -0.8088023
H           4.6124562    -1.4044383     0.6318391
C           1.0552375    -3.0195542    -3.2438386
H          -0.0107983    -3.1309703    -3.4527169
H           1.5660348    -3.8614868    -3.7178589
C           1.2974297    -3.0153409    -1.7255174
H           1.6170275    -3.9694525    -1.3023166
H           0.4343967    -2.6492616    -1.1634846
N           2.3991513    -1.9903260    -1.5127474
H           3.2828138    -2.4218205    -1.8085294
C           2.0717953    -0.8972574    -2.5158643
H           2.9421796    -0.2557382    -2.6570496
H           1.2640472    -0.3121272    -2.0683670
C           1.6202302    -1.6638983    -3.7652811
H           2.4633848    -1.8283689    -4.4421902
H           0.8754437    -1.0847909    -4.3153189
24
147_C7H16N+_16-0-7-3 (150,) energy =    -330.9102563
C           2.5417121    -1.4337419    -0.1471697
H           2.4740850    -2.3021972     0.5134441
H           1.6600614    -0.8086613     0.0242359
C           3.6786773     0.4335402     1.1475030
H           4.6272039     0.9527946     1.3083358
H           3.3676736     0.0075127     2.1075786
H           2.9329145     1.1770302     0.8461676
C           3.8437820    -0.6502768     0.0733238
H           4.1520418    -0.1646867    -0.8614007
H           4.6478102    -1.3436982     0.3452856
C           1.0687060    -3.0651306    -3.2582483
H           0.0066843    -3.1899962    -3.4796170
H           1.5889058    -3.9302227    -3.6773064
C           1.2846187    -2.9792193    -1.7391645
H           1.5874558    -3.9111409    -1.2581436
H           0.4157723    -2.5746012    -1.2135965
N           2.3923401    -1.9530916    -1.5635498
H           3.2764381    -2.4073177    -1.8220005
C           2.0903415    -0.9121516    -2.6284392
H           2.9708163    -0.2914810    -2.7957465
H           1.2864143    -0.2924479    -2.2225897
C           1.6419269    -1.7384728    -3.8411605
H           2.4876906    -1.9389305    -4.5048310
H           0.9024342    -1.1837535    -4.4225988
24
147_C7H16N+_16-0-7-3 (165,) energy =    -330.9121640
C           2.5144447    -1.3621787    -0.2362327
H           2.4619668    -2.1986025     0.4666024
H           1.6231729    -0.7427616    -0.0960317
C           3.7167612     0.3206177     1.2139238
H           4.6520956     0.8693471     1.3518570
H           3.5498790    -0.2820194     2.1133730
H           2.9054343     1.0521730     1.1367354
C           3.7980270    -0.5521195    -0.0464216
H           3.9632560     0.0998855    -0.9127858
H           4.6582938    -1.2306927     0.0139703
C           1.0710077    -3.1407761    -3.2774937
H           0.0131360    -3.2750817    -3.5127773
H           1.5959744    -4.0299979    -3.6359589
C           1.2576665    -2.9698253    -1.7626069
H           1.5322227    -3.8773842    -1.2217382
H           0.3866309    -2.5187442    -1.2802393
N           2.3818384    -1.9559860    -1.6245609
H           3.2617854    -2.4405897    -1.8379502
C           2.1226435    -0.9712507    -2.7525208
H           3.0244963    -0.3900261    -2.9449250
H           1.3353444    -0.3033222    -2.3931439
C           1.6616672    -1.8513874    -3.9230537
H           2.5034715    -2.0951509    -4.5769189
H           0.9286868    -1.3157988    -4.5301035
24
147_C7H16N+_16-0-7-3 (180,) energy =    -330.9132393
C           2.4126835    -1.3571146    -0.3442643
H           2.3834742    -2.1637195     0.3946346
H           1.5008806    -0.7617697    -0.2373709
C           3.7107399     0.1432943     1.2115786
H           4.6183442     0.7429888     1.3190280
H           3.7117521    -0.6095310     2.0071747
H           2.8524087     0.8054581     1.3676843
C           3.6703185    -0.5064004    -0.1786145
H           3.7006517     0.2765895    -0.9453969
H           4.5608550    -1.1342216    -0.3203766
C           1.0812331    -3.2903453    -3.3390079
H           0.0408603    -3.4731241    -3.6158878
H           1.6504487    -4.1803087    -3.6207984
C           1.1918187    -3.0311894    -1.8308169
H           1.4267347    -3.9071880    -1.2232811
H           0.3037885    -2.5419921    -1.4220699
N           2.3213200    -2.0234463    -1.7015087
H           3.2031323    -2.5269652    -1.8539806
C           2.1198518    -1.0944311    -2.8874202
H           3.0438028    -0.5491805    -3.0812220
H           1.3436713    -0.3863260    -2.5854773
C           1.6648171    -2.0198203    -4.0273750
H           2.5064873    -2.2807480    -4.6742202
H           0.9271545    -1.5099654    -4.6506878
