17
411_C6H7N3O_16-0-1-8 (-165,) energy =    -472.3547426
C           0.4623317     1.9382786     0.4124853
N          -0.3794662     0.8317980     0.3282580
H           0.0999508    -0.0411093     0.5125896
C          -4.3513738     0.0945531    -0.5770124
H          -5.3825919    -0.1751745    -0.7794148
C          -3.4771835    -0.8186218     0.0102501
H          -3.8141618    -1.8217070     0.2669104
N          -2.2009771    -0.5498296     0.2982371
C          -1.7280584     0.6698344    -0.0046459
C          -2.5124279     1.6538507    -0.6338323
H          -2.0824703     2.6016873    -0.9323324
C          -3.8420024     1.3502453    -0.9093590
H          -4.4703065     2.0904137    -1.3978268
N          -0.1524716     3.1821195     0.4203294
H           0.4989980     3.9145009     0.6744236
H          -1.0541456     3.2547270     0.8766147
O           1.6735813     1.7975520     0.4639707
17
411_C6H7N3O_16-0-1-8 (-150,) energy =    -472.3541372
C           0.4507519     1.9475621     0.3825118
N          -0.4278524     0.8665191     0.4709508
H           0.0558724    -0.0112357     0.6212175
C          -4.3406623     0.0677617    -0.6284870
H          -5.3560018    -0.2196382    -0.8806986
C          -3.4715531    -0.8389396    -0.0244357
H          -3.7961225    -1.8544021     0.1972859
N          -2.2140795    -0.5496264     0.3203333
C          -1.7563551     0.6862308     0.0642432
C          -2.5383821     1.6700727    -0.5672112
H          -2.1228002     2.6386099    -0.8140546
C          -3.8470136     1.3425922    -0.9076030
H          -4.4724588     2.0818822    -1.4011267
N          -0.1324554     3.2052684     0.4057590
H           0.5556343     3.9377066     0.5292545
H          -0.9683409     3.3205519     0.9663641
O           1.6547050     1.7748057     0.2884704
17
411_C6H7N3O_16-0-1-8 (-135,) energy =    -472.3528597
C           0.4284072     1.9410610     0.3566030
N          -0.4803519     0.9009965     0.6047736
H           0.0014516     0.0174096     0.7330383
C          -4.3280570     0.0463630    -0.6801204
H          -5.3259821    -0.2550931    -0.9808468
C          -3.4674080    -0.8544192    -0.0562805
H          -3.7813942    -1.8794466     0.1344928
N          -2.2298362    -0.5483687     0.3433581
C          -1.7869613     0.6998478     0.1287323
C          -2.5642030     1.6834157    -0.5080742
H          -2.1630211     2.6692004    -0.7055791
C          -3.8497279     1.3369023    -0.9109204
H          -4.4708768     2.0751228    -1.4114409
N          -0.1052128     3.2157793     0.4162322
H           0.6033423     3.9383870     0.4080283
H          -0.8684325     3.3746726     1.0621877
O           1.6001309     1.7174881     0.1058272
17
411_C6H7N3O_16-0-1-8 (-120,) energy =    -472.3508680
C           0.4038977     1.9425488     0.3172099
N          -0.5238109     0.9539138     0.7183778
H          -0.0476825     0.0660526     0.8490806
C          -4.3019546     0.0248209    -0.7230299
H          -5.2807814    -0.2942047    -1.0656115
C          -3.4464414    -0.8647757    -0.0774284
H          -3.7457900    -1.8980274     0.0911240
N          -2.2294991    -0.5381442     0.3689332
C          -1.8075120     0.7209718     0.1851623
C          -2.5850499     1.6985725    -0.4596530
H          -2.2030559     2.6998980    -0.6140897
C          -3.8456914     1.3299679    -0.9164302
H          -4.4666929     2.0624441    -1.4255314
N          -0.0619561     3.2353986     0.4332719
H           0.6480779     3.9424927     0.2942754
H          -0.7384398     3.4301144     1.1599025
O           1.5110857     1.6597111    -0.1031493
17
411_C6H7N3O_16-0-1-8 (-105,) energy =    -472.3483303
C           0.3651694     1.9354575     0.2763457
N          -0.5699575     0.9997503     0.8106969
H          -0.0997254     0.1100938     0.9599500
C          -4.2820150     0.0063658    -0.7594820
H          -5.2438683    -0.3261125    -1.1357233
C          -3.4367717    -0.8732272    -0.0879948
H          -3.7272930    -1.9107422     0.0694304
N          -2.2378271    -0.5317767     0.3967719
C          -1.8298503     0.7331628     0.2305614
C          -2.6018890     1.7040027    -0.4307169
H          -2.2325472     2.7147872    -0.5556291
C          -3.8403278     1.3201745    -0.9316635
H          -4.4571359     2.0463160    -1.4547755
N          -0.0034970     3.2429400     0.4817323
H           0.6906700     3.9340971     0.2307396
H          -0.5907915     3.4556250     1.2763835
O           1.3689010     1.5973668    -0.3213375
17
411_C6H7N3O_16-0-1-8 (-90,) energy =    -472.3456495
C           0.3056813     1.9289077     0.2347888
N          -0.6227689     1.0313458     0.8736764
H          -0.1522049     0.1461756     1.0529026
C          -4.2737349    -0.0273705    -0.7937767
H          -5.2210010    -0.3719945    -1.1953178
C          -3.4409757    -0.8939151    -0.0910806
H          -3.7276702    -1.9323292     0.0674437
N          -2.2574672    -0.5387569     0.4230805
C          -1.8583365     0.7281546     0.2583816
C          -2.6215606     1.6882775    -0.4287352
H          -2.2610493     2.7045209    -0.5411185
C          -3.8407957     1.2904689    -0.9627429
H          -4.4508748     2.0070934    -1.5064464
N           0.0695847     3.2342618     0.5682865
H           0.7364612     3.9188586     0.2394324
H          -0.4403012     3.4372586     1.4157887
O           1.1677651     1.5635697    -0.5393412
17
411_C6H7N3O_16-0-1-8 (-75,) energy =    -472.3468947
C           0.0876096     2.2561117     0.1473083
N          -0.4128430     0.9228654     0.1185968
H          -0.1560844     0.3827047     0.9412602
C          -4.3844458     0.0410025    -0.6587495
H          -5.4200365    -0.2426032    -0.8160125
C          -3.6154649    -0.5916797     0.3130467
H          -4.0405021    -1.3821117     0.9293987
N          -2.3357704    -0.2845865     0.5682746
C          -1.7708613     0.6739811    -0.1736482
C          -2.4442673     1.3658184    -1.1947358
H          -1.9202838     2.1147897    -1.7767383
C          -3.7754090     1.0427048    -1.4220843
H          -4.3319486     1.5592685    -2.1996161
N           0.4705645     2.6626670     1.4076734
H           0.8138034     3.6127359     1.4623419
H          -0.0349501     2.3284568     2.2168560
O           0.2992669     2.9105291    -0.8562087
17
411_C6H7N3O_16-0-1-8 (-60,) energy =    -472.3513663
C           0.0461418     2.2934561     0.1969826
N          -0.4909547     0.9890457     0.2272253
H          -0.2451228     0.4473016     1.0506877
C          -4.3942027    -0.0054164    -0.7275032
H          -5.4134759    -0.3198886    -0.9271854
C          -3.6483295    -0.6132429     0.2779909
H          -4.0750214    -1.4146889     0.8787938
N          -2.3901830    -0.2686954     0.5835587
C          -1.8238478     0.7067737    -0.1356968
C          -2.4722768     1.3760631    -1.1866899
H          -1.9467442     2.1401228    -1.7456405
C          -3.7829477     1.0114674    -1.4676539
H          -4.3211649     1.5099182    -2.2695450
N           0.6542580     2.6554716     1.3842885
H           1.0270155     3.5958577     1.3852325
H           0.2529821     2.3490329     2.2604969
O           0.1086855     2.9716947    -0.8139386
17
411_C6H7N3O_16-0-1-8 (-45,) energy =    -472.3550314
C           0.0119200     2.3260406     0.2411625
N          -0.5766619     1.0600769     0.3434655
H          -0.3289465     0.5120073     1.1605084
C          -4.3960866    -0.0594571    -0.7833030
H          -5.3949555    -0.4083987    -1.0246282
C          -3.6721324    -0.6411600     0.2535831
H          -4.0956486    -1.4564020     0.8378915
N          -2.4403832    -0.2546012     0.6086382
C          -1.8777163     0.7410730    -0.0871829
C          -2.5043138     1.3881817    -1.1647334
H          -1.9843248     2.1716657    -1.6998654
C          -3.7890575     0.9768155    -1.4985740
H          -4.3100993     1.4569321    -2.3227106
N           0.8012228     2.6446319     1.3347022
H           1.1923853     3.5761972     1.2858657
H           0.4993328     2.3603213     2.2574604
O          -0.0428931     3.0240160    -0.7587717
17
411_C6H7N3O_16-0-1-8 (-30,) energy =    -472.3574964
C          -0.0072231     2.3436631     0.2764745
N          -0.6712674     1.1354891     0.4655875
H          -0.4231724     0.5743407     1.2722311
C          -4.3921506    -0.1029895    -0.8411274
H          -5.3670137    -0.4851834    -1.1262440
C          -3.6944971    -0.6635519     0.2253621
H          -4.1142963    -1.4947534     0.7896104
N          -2.4931367    -0.2377281     0.6326272
C          -1.9340930     0.7806695    -0.0347449
C          -2.5369460     1.4125447    -1.1347592
H          -2.0244203     2.2182721    -1.6420147
C          -3.7904110     0.9562090    -1.5257660
H          -4.2915380     1.4227033    -2.3698786
N           0.9172644     2.6142338     1.2758251
H           1.3338174     3.5314251     1.1850982
H           0.7013928     2.3452961     2.2271429
O          -0.1316625     3.0505047    -0.7124001
17
411_C6H7N3O_16-0-1-8 (-15,) energy =    -472.3588292
C          -0.0175085     2.3620977     0.2975728
N          -0.7710002     1.2361128     0.5933720
H          -0.5063132     0.6583616     1.3818398
C          -4.3709302    -0.1526029    -0.8849781
H          -5.3154338    -0.5739753    -1.2138019
C          -3.6939150    -0.6893106     0.2069197
H          -4.1009678    -1.5417805     0.7483272
N          -2.5294395    -0.2163445     0.6646731
C          -1.9873643     0.8311185     0.0275266
C          -2.5744181     1.4477729    -1.0897587
H          -2.0799965     2.2809134    -1.5691758
C          -3.7879485     0.9372155    -1.5363620
H          -4.2740913     1.3891058    -2.3970135
N           1.0042956     2.5829372     1.2125944
H           1.4625255     3.4737353     1.0732346
H           0.8485533     2.3436793     2.1835648
O          -0.1691712     3.0570923    -0.6966204
17
411_C6H7N3O_16-0-1-8 (0,) energy =    -472.3592121
C          -0.0858758     2.4637935     0.4162360
N          -0.8770540     1.3718333     0.7364734
H          -0.7079971     0.8794311     1.6051777
C          -4.3054707    -0.1789135    -0.9714818
H          -5.2067306    -0.6428373    -1.3591238
C          -3.7125608    -0.6448197     0.1990778
H          -4.1437392    -1.4823315     0.7451360
N          -2.6030729    -0.1190099     0.7294597
C          -2.0362278     0.9160711     0.0934328
C          -2.5464770     1.4711827    -1.0916298
H          -2.0490928     2.3126131    -1.5527297
C          -3.7000810     0.9011377    -1.6183441
H          -4.1254902     1.3039123    -2.5338022
N           0.9681462     2.6456728     1.3042181
H           1.6439230     3.3181266     0.9660113
H           1.3810224     1.8303282     1.7396425
O          -0.2938676     3.2243181    -0.5179873
17
411_C6H7N3O_16-0-1-8 (15,) energy =    -472.3588294
C          -0.0955623     2.4792552     0.4230332
N          -0.9834934     1.4964850     0.8332481
H          -0.7926556     0.9843328     1.6857207
C          -4.2623979    -0.2136216    -1.0096308
H          -5.1256556    -0.7174904    -1.4323076
C          -3.6930999    -0.6559975     0.1815524
H          -4.1055260    -1.5145132     0.7091688
N          -2.6284101    -0.0830563     0.7536953
C          -2.0878075     0.9802441     0.1420486
C          -2.5826032     1.5202700    -1.0565976
H          -2.1105679     2.3889110    -1.4937139
C          -3.6853090     0.8972577    -1.6299156
H          -4.0957611     1.2847926    -2.5586852
N           1.0200298     2.5760384     1.2464742
H           1.7250329     3.1950106     0.8682440
H           1.3919510     1.7303670     1.6601717
O          -0.2876895     3.2413295    -0.5133356
17
411_C6H7N3O_16-0-1-8 (30,) energy =    -472.3574969
C          -0.1061600     2.5061706     0.4221745
N          -1.0743636     1.6363442     0.9143524
H          -0.8610779     1.1066536     1.7515930
C          -4.2036003    -0.2504865    -1.0181415
H          -5.0274336    -0.7982932    -1.4641818
C          -3.6505922    -0.6603199     0.1920642
H          -4.0365038    -1.5360694     0.7113117
N          -2.6317206    -0.0347490     0.7929475
C          -2.1269456     1.0514925     0.1927644
C          -2.6141135     1.5658135    -1.0200006
H          -2.1740871     2.4581414    -1.4435222
C          -3.6645146     0.8863830    -1.6260816
H          -4.0662105     1.2507839    -2.5679441
N           1.0615512     2.4947100     1.1724682
H           1.7942849     3.0596670     0.7639344
H           1.3797544     1.6191916     1.5676319
O          -0.2857990     3.2844610    -0.5024539
17
411_C6H7N3O_16-0-1-8 (45,) energy =    -472.3550314
C          -0.1354679     2.5373645     0.4384652
N          -1.1687885     1.7662342     0.9835072
H          -0.9413508     1.2290654     1.8135973
C          -4.1402600    -0.2830456    -1.0370774
H          -4.9228061    -0.8697168    -1.5073771
C          -3.6111317    -0.6618857     0.1934201
H          -3.9749405    -1.5518101     0.7043772
N          -2.6405565     0.0108844     0.8243561
C          -2.1672549     1.1158269     0.2350892
C          -2.6382149     1.6043418    -0.9945479
H          -2.2273540     2.5169452    -1.4055765
C          -3.6336236     0.8750667    -1.6337560
H          -4.0204748     1.2170229    -2.5901048
N           1.0673273     2.3794359     1.1082834
H           1.8274153     2.8998406     0.6903757
H           1.3210875     1.4624829     1.4521652
O          -0.2963771     3.3677189    -0.4417217
17
411_C6H7N3O_16-0-1-8 (60,) energy =    -472.3513660
C          -0.1723662     2.5830994     0.4583916
N          -1.2551356     1.8907040     1.0405866
H          -1.0174077     1.3532010     1.8692155
C          -4.0704259    -0.3148639    -1.0440700
H          -4.8122161    -0.9384242    -1.5325463
C          -3.5660762    -0.6596784     0.2063173
H          -3.9088841    -1.5593297     0.7146912
N          -2.6434659     0.0582853     0.8608843
C          -2.2002282     1.1765990     0.2757051
C          -2.6523497     1.6337415    -0.9731438
H          -2.2694616     2.5617026    -1.3789640
C          -3.5940262     0.8582677    -1.6376589
H          -3.9645333     1.1746957    -2.6091281
N           1.0463856     2.2509117     1.0201214
H           1.8349639     2.7244009     0.5990538
H           1.2177312     1.2949272     1.3020934
O          -0.3068408     3.4914866    -0.3432335
17
411_C6H7N3O_16-0-1-8 (75,) energy =    -472.3468947
C          -0.2123538     2.6376898     0.4930288
N          -1.3351811     2.0016558     1.0959817
H          -1.0931808     1.4712390     1.9293832
C          -3.9931354    -0.3449440    -1.0450785
H          -4.6946677    -1.0013679    -1.5496294
C          -3.5183469    -0.6561338     0.2252528
H          -3.8447188    -1.5621359     0.7331601
N          -2.6433917     0.1021263     0.9009465
C          -2.2245358     1.2303360     0.3177508
C          -2.6514889     1.6545624    -0.9520860
H          -2.2927956     2.5934126    -1.3572309
C          -3.5406068     0.8382947    -1.6385262
H          -3.8900965     1.1293624    -2.6255764
N           0.9931473     2.1127455     0.9073628
H           1.8090388     2.5330683     0.4818211
H           1.0637818     1.1266672     1.1187399
O          -0.3020149     3.6377983    -0.1938781
17
411_C6H7N3O_16-0-1-8 (90,) energy =    -472.3456495
C          -0.2938893     2.6442488     0.8871253
N          -0.8796827     1.3574745     1.1643774
H          -1.1834893     1.3382736     2.1361856
C          -4.0798827    -0.1920415    -0.9776977
H          -4.9385688    -0.6324984    -1.4736507
C          -3.9042704    -0.3283612     0.3966195
H          -4.6263620    -0.8803367     0.9962315
N          -2.8749984     0.1952152     1.0731222
C          -1.9566801     0.8818686     0.3826948
C          -2.0314236     1.0765277    -1.0076270
H          -1.2665721     1.6407423    -1.5291749
C          -3.1161278     0.5325474    -1.6839802
H          -3.2070154     0.6721372    -2.7580453
N           0.7047422     2.5635707    -0.0440868
H           1.2327838     3.4064735    -0.2236203
H           1.1620493     1.6759774    -0.1940965
O          -0.6760826     3.6793334     1.3955196
17
411_C6H7N3O_16-0-1-8 (105,) energy =    -472.3483303
C          -0.2401297     2.6568345     0.9346592
N          -0.9189544     1.4295145     1.1962399
H          -1.2444184     1.4299756     2.1600638
C          -4.0391302    -0.2135518    -0.9938471
H          -4.8797717    -0.6786102    -1.4981324
C          -3.8866778    -0.3227330     0.3859547
H          -4.6103898    -0.8762785     0.9821517
N          -2.8786940     0.2285109     1.0709030
C          -1.9590894     0.9216810     0.3868081
C          -2.0141027     1.0948716    -1.0070505
H          -1.2571488     1.6724693    -1.5238711
C          -3.0765763     0.5181867    -1.6930438
H          -3.1509573     0.6411034    -2.7704198
N           0.6282475     2.5767716    -0.1269998
H           1.2195814     3.3852282    -0.2658726
H           1.0287093     1.6762083    -0.3511346
O          -0.4386865     3.6706481     1.5763482
17
411_C6H7N3O_16-0-1-8 (120,) energy =    -472.3508680
C          -0.1947146     2.6560880     0.9686721
N          -0.9886267     1.5142049     1.2232004
H          -1.3219541     1.5320340     2.1827074
C          -4.0120624    -0.2480653    -1.0058084
H          -4.8295756    -0.7448794    -1.5177549
C          -3.8782718    -0.3346219     0.3779162
H          -4.5957414    -0.9008787     0.9697093
N          -2.8968614     0.2520590     1.0703861
C          -1.9864596     0.9655592     0.3926661
C          -2.0289222     1.1251522    -1.0033217
H          -1.2915546     1.7296543    -1.5164386
C          -3.0626689     0.5062634    -1.6976384
H          -3.1257806     0.6180742    -2.7769267
N           0.5699916     2.5694127    -0.1757333
H           1.2474867     3.3141111    -0.2751069
H           0.8808273     1.6519481    -0.4675830
O          -0.2052722     3.6289437     1.7007951
17
411_C6H7N3O_16-0-1-8 (135,) energy =    -472.3528597
C          -0.1616964     2.6447353     0.9992592
N          -1.0772947     1.6102652     1.2456680
H          -1.4069598     1.6346422     2.2048546
C          -3.9813691    -0.2905119    -1.0213970
H          -4.7687518    -0.8252601    -1.5422036
C          -3.8665434    -0.3610689     0.3653757
H          -4.5705565    -0.9507630     0.9504306
N          -2.9197004     0.2672607     1.0679794
C          -2.0274078     1.0138076     0.3996019
C          -2.0607653     1.1694295    -0.9974314
H          -1.3528630     1.8132606    -1.5034772
C          -3.0561696     0.5013470    -1.7029574
H          -3.1101504     0.6084347    -2.7832048
N           0.5289377     2.5474736    -0.1952187
H           1.2969827     3.2034834    -0.2587605
H           0.7311916     1.6193454    -0.5454776
O          -0.0017905     3.5567508     1.7920187
17
411_C6H7N3O_16-0-1-8 (150,) energy =    -472.3541372
C          -0.1324195     2.6432498     1.0180595
N          -1.1622957     1.7309526     1.2536232
H          -1.4736735     1.7426426     2.2179522
C          -3.9400258    -0.3299847    -1.0253247
H          -4.6948914    -0.9070222    -1.5490890
C          -3.8380496    -0.3824232     0.3636270
H          -4.5207025    -0.9985978     0.9467081
N          -2.9284716     0.2936737     1.0702871
C          -2.0642197     1.0762601     0.4046565
C          -2.0959973     1.2249819    -0.9935987
H          -1.4244871     1.9088830    -1.4966470
C          -3.0491778     0.5022186    -1.7040113
H          -3.0998303     0.6017761    -2.7851309
N           0.5044982     2.5339107    -0.2086746
H           1.3522344     3.0864368    -0.2439226
H           0.5955961     1.6060138    -0.6048834
O           0.1714315     3.4796057     1.8525502
17
411_C6H7N3O_16-0-1-8 (165,) energy =    -472.3547430
C          -0.1079968     2.6285155     1.0533708
N          -1.2484324     1.8574169     1.2668719
H          -1.5375901     1.8451429     2.2374239
C          -3.8883066    -0.3629354    -1.0227200
H          -4.6062559    -0.9808326    -1.5517837
C          -3.7983854    -0.4030593     0.3676981
H          -4.4559302    -1.0502425     0.9459543
N          -2.9304524     0.3199939     1.0803690
C          -2.1006585     1.1429095     0.4191590
C          -2.1327553     1.2905879    -0.9796992
H          -1.5030905     2.0169021    -1.4781189
C          -3.0378315     0.5141661    -1.6965244
H          -3.0865440     0.6099500    -2.7780233
N           0.4978595     2.5032303    -0.1877555
H           1.4120692     2.9380607    -0.2002279
H           0.4632576     1.5962739    -0.6375842
O           0.3107166     3.3757227     1.9229376
17
411_C6H7N3O_16-0-1-8 (180,) energy =    -472.3547043
C          -0.0945750     2.6076619     1.0599139
N          -1.3312715     1.9904139     1.2438419
H          -1.5957854     1.9445464     2.2206782
C          -3.8399556    -0.3972284    -1.0247813
H          -4.5225912    -1.0569759    -1.5500839
C          -3.7562243    -0.4181289     0.3665834
H          -4.3837265    -1.0914538     0.9482685
N          -2.9285307     0.3544947     1.0758496
C          -2.1388259     1.2109568     0.4091121
C          -2.1765010     1.3472368    -0.9908670
H          -1.5894549     2.1077861    -1.4913531
C          -3.0344410     0.5166981    -1.7050832
H          -3.0855191     0.6007589    -2.7874121
N           0.4894247     2.4736474    -0.1906796
H           1.4531921     2.7836986    -0.1810365
H           0.3387956     1.6057201    -0.6906743
O           0.4165693     3.2491002     1.9638981
