21
402_C9H12_0-6-15-17 (-165,) energy =    -350.1896744
C           0.8415466    -0.0236854     1.2957242
H           1.5204083    -0.0201359     2.1431217
C          -0.3854895     0.6265104     1.4221153
H          -0.6332826     1.1276711     2.3545585
C          -1.2892932     0.6382848     0.3587338
H          -2.2449150     1.1471221     0.4532387
C           1.2034624    -0.6873884     0.1110964
C          -0.9481031    -0.0110839    -0.8260989
H          -1.6380893    -0.0111869    -1.6662961
C           0.2817080    -0.6626099    -0.9462562
H           0.5175674    -1.1532311    -1.8844418
C           3.7007522    -0.6087786     0.6497443
H           4.6447542    -1.1567436     0.5503398
H           3.5398547    -0.4311603     1.7169843
H           3.8218573     0.3658544     0.1619154
C           2.5530618    -1.4077567    -0.0011808
H           2.4633543    -2.3556902     0.5528417
C           2.9466322    -1.7593213    -1.4452659
H           3.0158955    -0.8590068    -2.0676795
H           2.2345700    -2.4442213    -1.9174319
H           3.9255856    -2.2509357    -1.4562573
21
402_C9H12_0-6-15-17 (-150,) energy =    -350.1892736
C           0.9168659     0.1310396     1.2000934
H           1.6565335     0.2693068     1.9814886
C          -0.3185806     0.7669025     1.3350358
H          -0.5111576     1.3807718     2.2114586
C          -1.2984123     0.6191357     0.3543787
H          -2.2602400     1.1145938     0.4565706
C           1.2138064    -0.6673709     0.0840394
C          -1.0259003    -0.1744336    -0.7599008
H          -1.7770266    -0.3033340    -1.5352952
C           0.2109136    -0.8069405    -0.8896813
H           0.3885497    -1.4191418    -1.7678563
C           3.6878368    -0.7626442     0.7716727
H           4.6207556    -1.3150981     0.6141922
H           3.4875497    -0.7686035     1.8476222
H           3.8553758     0.2766610     0.4639460
C           2.5518801    -1.4078331    -0.0417113
H           2.3966715    -2.4171742     0.3727763
C           3.0055481    -1.5922683    -1.5022955
H           3.1234937    -0.6241019    -2.0038799
H           2.3026908    -2.1916008    -2.0885103
H           3.9719106    -2.1079904    -1.5320658
21
402_C9H12_0-6-15-17 (-135,) energy =    -350.1902494
C           0.9830567     0.2505457     1.0928717
H           1.7705848     0.4936496     1.7982298
C          -0.2562755     0.8804292     1.2340026
H          -0.4062042     1.5934685     2.0409326
C          -1.2949943     0.5969144     0.3497065
H          -2.2596446     1.0854073     0.4585858
C           1.2223834    -0.6680447     0.0609400
C          -1.0818144    -0.3279683    -0.6743683
H          -1.8836994    -0.5685087    -1.3679920
C           0.1574974    -0.9508524    -0.8114989
H           0.2915696    -1.6775942    -1.6080781
C           3.6613480    -0.9096598     0.8526157
H           4.5757921    -1.4921790     0.6957802
H           3.3856467    -1.0093201     1.9077694
H           3.9005005     0.1436964     0.6614303
C           2.5538621    -1.4121184    -0.0847509
H           2.3566149    -2.4612662     0.1880661
C           3.0609933    -1.4222662    -1.5411993
H           3.2782458    -0.4036265    -1.8851553
H           2.3355396    -1.8593981    -2.2332627
H           3.9839530    -2.0087374    -1.6174819
21
402_C9H12_0-6-15-17 (-120,) energy =    -350.1914862
C           1.0327509     0.3428604     0.9902566
H           1.8559741     0.6618846     1.6214172
C          -0.2048643     0.9793041     1.1242163
H          -0.3207189     1.7770992     1.8536572
C          -1.2852027     0.5930229     0.3336309
H          -2.2483260     1.0853362     0.4389591
C           1.2219779    -0.6849701     0.0578898
C          -1.1181215    -0.4405183    -0.5914539
H          -1.9540603    -0.7608101    -1.2083442
C           0.1182193    -1.0691619    -0.7219662
H           0.2272745    -1.8811795    -1.4377659
C           3.6231968    -1.0444118     0.9173276
H           4.5162153    -1.6622245     0.7719257
H           3.2743421    -1.1973190     1.9445199
H           3.9293441     0.0039713     0.8150160
C           2.5510191    -1.4217447    -0.1127282
H           2.3338924    -2.4923552     0.0246833
C           3.1013483    -1.2580761    -1.5450003
H           3.3501795    -0.2090514    -1.7467685
H           2.3761979    -1.5781301    -2.2997296
H           4.0119140    -1.8542248    -1.6786604
21
402_C9H12_0-6-15-17 (-105,) energy =    -350.1922487
C           1.0703189     0.4196545     0.8663654
H           1.9260536     0.8071369     1.4108568
C          -0.1645696     1.0600750     1.0014140
H          -0.2489339     1.9320549     1.6452483
C          -1.2839619     0.5834021     0.3208503
H          -2.2450536     1.0791455     0.4286824
C           1.2139816    -0.7062232     0.0457285
C          -1.1590041    -0.5428596    -0.4959778
H          -2.0250087    -0.9312490    -1.0261522
C           0.0751418    -1.1767810    -0.6269849
H           0.1591347    -2.0587522    -1.2594353
C           3.5759233    -1.1690565     0.9550214
H           4.4545005    -1.8068895     0.8068981
H           3.1658932    -1.3827954     1.9482826
H           3.9254772    -0.1295734     0.9491279
C           2.5446820    -1.4277593    -0.1519351
H           2.3218743    -2.5049987    -0.1435724
C           3.1413766    -1.1013749    -1.5372401
H           3.3885504    -0.0353064    -1.6107187
H           2.4365272    -1.3353724    -2.3420461
H           4.0595437    -1.6757076    -1.7105996
21
402_C9H12_0-6-15-17 (-90,) energy =    -350.1926583
C           1.1072112     0.4861866     0.7233604
H           1.9956462     0.9361779     1.1574393
C          -0.1228432     1.1284017     0.8799647
H          -0.1744442     2.0638862     1.4315246
C          -1.2816303     0.5730787     0.3366341
H          -2.2393837     1.0712492     0.4616335
C           1.2071501    -0.7220238     0.0198340
C          -1.1994491    -0.6314980    -0.3641990
H          -2.0951582    -1.0791853    -0.7874762
C           0.0319908    -1.2684181    -0.5165758
H           0.0852426    -2.2103020    -1.0595248
C           3.5145720    -1.3136404     0.9770400
H           4.3946081    -1.9436839     0.8043148
H           3.0488456    -1.6290996     1.9170917
H           3.8736344    -0.2858507     1.1065870
C           2.5376481    -1.4330168    -0.2031530
H           2.3077045    -2.5006611    -0.3286340
C           3.1970025    -0.9546005    -1.5134709
H           3.4485339     0.1114459    -1.4549575
H           2.5261711    -1.0917474    -2.3684111
H           4.1216970    -1.5106356    -1.7107840
21
402_C9H12_0-6-15-17 (-75,) energy =    -350.1930984
C           1.1359463     0.5550960     0.5425467
H           2.0505848     1.0608037     0.8419499
C          -0.0886863     1.1946458     0.7362957
H          -0.1139842     2.1847203     1.1847272
C          -1.2778539     0.5672887     0.3594022
H          -2.2321560     1.0642873     0.5123901
C           1.2018662    -0.7229124    -0.0323271
C          -1.2292131    -0.7040638    -0.2128311
H          -2.1473811    -1.2055955    -0.5082959
C          -0.0005480    -1.3388838    -0.4036293
H           0.0268638    -2.3322047    -0.8472664
C           3.4307639    -1.4503224     0.9788055
H           4.3363613    -2.0379812     0.7874692
H           2.9103108    -1.8939823     1.8345325
H           3.7501106    -0.4419672     1.2671001
C           2.5324331    -1.4269027    -0.2701474
H           2.2996265    -2.4705097    -0.5236615
C           3.2751066    -0.8192138    -1.4767870
H           3.5364502     0.2294411    -1.2895332
H           2.6556295    -0.8516380    -2.3796005
H           4.2040182    -1.3664536    -1.6785087
21
402_C9H12_0-6-15-17 (-60,) energy =    -350.1932763
C           1.1433507     0.6178833     0.3653226
H           2.0631598     1.1727876     0.5347111
C          -0.0815028     1.2449082     0.5927711
H          -0.1033719     2.2767451     0.9345892
C          -1.2761973     0.5525602     0.3826724
H          -2.2310908     1.0406133     0.5591684
C           1.2042610    -0.7126196    -0.0763084
C          -1.2322294    -0.7705806    -0.0562818
H          -2.1546573    -1.3208227    -0.2243178
C          -0.0026327    -1.3928109    -0.2823660
H           0.0213278    -2.4251308    -0.6257037
C           3.3413127    -1.5758069     0.9806770
H           4.2707662    -2.1273407     0.7945618
H           2.7639857    -2.1228861     1.7339255
H           3.6107744    -0.6029208     1.4088531
C           2.5375701    -1.4073121    -0.3231511
H           2.3111989    -2.4135240    -0.7016697
C           3.3750196    -0.6886319    -1.3975588
H           3.6569989     0.3206740    -1.0752026
H           2.8191836    -0.5956382    -2.3369271
H           4.2995601    -1.2422765    -1.6004990
21
402_C9H12_0-6-15-17 (-45,) energy =    -350.1929311
C           1.1251672     0.6833344     0.1803042
H           2.0306529     1.2836734     0.2113002
C          -0.1023322     1.2920368     0.4452953
H          -0.1372109     2.3540100     0.6754465
C          -1.2809701     0.5447801     0.4122966
H          -2.2373160     1.0193209     0.6155827
C           1.2038864    -0.6840837    -0.1213601
C          -1.2195160    -0.8164641     0.1119729
H          -2.1298556    -1.4097740     0.0784530
C           0.0110423    -1.4194237    -0.1526014
H           0.0482683    -2.4807647    -0.3905244
C           3.2516099    -1.7112205     0.9390333
H           4.1819695    -2.2613376     0.7520746
H           2.6174857    -2.3226001     1.5902475
H           3.5052486    -0.7949445     1.4859125
C           2.5350540    -1.3780467    -0.3857665
H           2.3063042    -2.3306097    -0.8833713
C           3.4625509    -0.5815345    -1.3192513
H           3.7968150     0.3545565    -0.8570831
H           2.9626315    -0.3310954    -2.2613049
H           4.3594732    -1.1665399    -1.5539297
21
402_C9H12_0-6-15-17 (-30,) energy =    -350.1924892
C           1.0898035     0.7356166     0.0117458
H           1.9658002     1.3691612    -0.0924720
C          -0.1421937     1.3252929     0.3046860
H          -0.2057554     2.4040964     0.4235764
C          -1.2860193     0.5387034     0.4394397
H          -2.2449228     0.9983442     0.6637786
C           1.2057884    -0.6514182    -0.1496678
C          -1.1877776    -0.8447460     0.2770768
H          -2.0720763    -1.4699715     0.3719081
C           0.0445557    -1.4275679    -0.0155486
H           0.1099592    -2.5062002    -0.1467690
C           3.1744136    -1.8461731     0.8772508
H           4.0986240    -2.4006814     0.6735759
H           2.4929261    -2.5070152     1.4237109
H           3.4215095    -1.0045324     1.5356611
C           2.5362195    -1.3414595    -0.4344801
H           2.3106445    -2.2250085    -1.0483977
C           3.5355806    -0.4788266    -1.2198680
H           3.8879975     0.3745073    -0.6285662
H           3.0943204    -0.0901442    -2.1443118
H           4.4172816    -1.0722246    -1.4872903
21
402_C9H12_0-6-15-17 (-15,) energy =    -350.1920403
C           1.0529055     0.7622514    -0.1443294
H           1.8971133     1.4070807    -0.3677331
C          -0.1817523     1.3453970     0.1551591
H          -0.2759907     2.4284909     0.1607779
C          -1.2878919     0.5467055     0.4396975
H          -2.2485547     1.0000850     0.6691321
C           1.2102800    -0.6291795    -0.1590368
C          -1.1504114    -0.8434851     0.4193584
H          -2.0063624    -1.4798171     0.6299190
C           0.0831234    -1.4186626     0.1213479
H           0.1753154    -2.5029514     0.0990161
C           3.1173077    -1.9769771     0.8014264
H           4.0371933    -2.5270660     0.5689152
H           2.4070657    -2.6788668     1.2509148
H           3.3568910    -1.2176152     1.5555797
C           2.5387833    -1.3164053    -0.4683769
H           2.3210968    -2.1222039    -1.1847998
C           3.5903277    -0.4009414    -1.1100285
H           3.9212697     0.3811855    -0.4162093
H           3.2089137     0.0868474    -2.0140116
H           4.4751594    -0.9836592    -1.3893114
21
402_C9H12_0-6-15-17 (0,) energy =    -350.1911063
C           1.0102805     0.7760550    -0.2790133
H           1.8190619     1.4187419    -0.6109341
C          -0.2256321     1.3551203     0.0236862
H          -0.3535179     2.4299018    -0.0787890
C          -1.2893573     0.5625671     0.4494961
H          -2.2510266     1.0117047     0.6829874
C           1.2166479    -0.6037243    -0.1519344
C          -1.1070896    -0.8176243     0.5653650
H          -1.9300679    -1.4515958     0.8858939
C           0.1278803    -1.3882979     0.2650970
H           0.2454934    -2.4663845     0.3474463
C           3.0866894    -2.0900122     0.6993405
H           4.0044240    -2.6212702     0.4205145
H           2.3672083    -2.8324650     1.0582012
H           3.3221074    -1.4229234     1.5373357
C           2.5431737    -1.2827740    -0.4992969
H           2.3353347    -1.9988880    -1.3089004
C           3.6304378    -0.3218679    -0.9997151
H           3.9077921     0.4049686    -0.2265968
H           3.3128370     0.2331830    -1.8893187
H           4.5333394    -0.8832668    -1.2639287
21
402_C9H12_0-6-15-17 (15,) energy =    -350.1898216
C           0.9448495     0.7688110    -0.4167704
H           1.7150197     1.3918825    -0.8586719
C          -0.2903730     1.3488358    -0.1173998
H          -0.4540735     2.4017968    -0.3330647
C          -1.3075541     0.5854193     0.4519714
H          -2.2691201     1.0348013     0.6854002
C           1.2033718    -0.5831054    -0.1466744
C          -1.0758090    -0.7659638     0.7136990
H          -1.8600390    -1.3791581     1.1507162
C           0.1598225    -1.3384580     0.4150689
H           0.3061796    -2.3952333     0.6184064
C           3.0339273    -2.2065870     0.5837652
H           3.9743117    -2.6783890     0.2763459
H           2.3235162    -3.0091209     0.8024068
H           3.2185602    -1.6598378     1.5162780
C           2.5323023    -1.2512560    -0.5190468
H           2.3473745    -1.8601136    -1.4179089
C           3.6517600    -0.2552126    -0.8616674
H           3.8633692     0.4098945    -0.0156785
H           3.4061941     0.3666176    -1.7289896
H           4.5735744    -0.7968264    -1.1005487
21
402_C9H12_0-6-15-17 (30,) energy =    -350.1892324
C           0.8855237     0.7252368    -0.5844429
H           1.6037304     1.3064227    -1.1533327
C          -0.3487014     1.3035993    -0.2851138
H          -0.5619294     2.3149129    -0.6224767
C          -1.3020053     0.5931312     0.4438348
H          -2.2629707     1.0421623     0.6804077
C           1.2072028    -0.5771259    -0.1683425
C          -1.0031046    -0.7017736     0.8657309
H          -1.7324221    -1.2716159     1.4361676
C           0.2329286    -1.2753550     0.5631911
H           0.4325286    -2.2841259     0.9088473
C           2.9828188    -2.3283677     0.4452219
H           3.9596939    -2.7277415     0.1508281
H           2.2834221    -3.1698478     0.4632040
H           3.0710290    -1.9395097     1.4668994
C           2.5503158    -1.2227852    -0.5348494
H           2.4161878    -1.7026433    -1.5179101
C           3.6916955    -0.2004852    -0.6903188
H           3.8407228     0.3688430     0.2351175
H           3.5093819     0.5130463    -1.4995222
H           4.6289109    -0.7183778    -0.9227684
21
402_C9H12_0-6-15-17 (45,) energy =    -350.1900983
C           0.8171960     0.6579746    -0.7411047
H           1.4782647     1.1693358    -1.4350630
C          -0.4121297     1.2402409    -0.4366068
H          -0.6810532     2.1927175    -0.8865704
C          -1.2924104     0.6071745     0.4428801
H          -2.2501564     1.0602722     0.6847038
C           1.2035881    -0.5747426    -0.1877006
C          -0.9255539    -0.6131528     1.0064015
H          -1.5969274    -1.1200461     1.6951155
C           0.3070469    -1.1933137     0.6954687
H           0.5648103    -2.1409600     1.1561670
C           2.9302644    -2.4225089     0.2971015
H           3.9028937    -2.8134032    -0.0212383
H           2.2007746    -3.2320461     0.1888105
H           3.0040259    -2.1713884     1.3623661
C           2.5601403    -1.1927466    -0.5445953
H           2.4850877    -1.5345158    -1.5897899
C           3.7049276    -0.1605072    -0.5012987
H           3.8280126     0.2439131     0.5107796
H           3.5354243     0.6812895    -1.1785385
H           4.6500980    -0.6321215    -0.7942628
21
402_C9H12_0-6-15-17 (60,) energy =    -350.1914646
C           0.7592198     0.5727691    -0.8713194
H           1.3715239     1.0032282    -1.6608273
C          -0.4660565     1.1609312    -0.5654007
H          -0.7912429     2.0433308    -1.1108833
C          -1.2740767     0.6182978     0.4368955
H          -2.2302994     1.0744148     0.6791069
C           1.2112120    -0.5730167    -0.1953649
C          -0.8406422    -0.5160720     1.1200530
H          -1.4581902    -0.9510377     1.9019965
C           0.3889192    -1.1031484     0.8069570
H           0.7017784    -1.9855118     1.3559240
C           2.8935144    -2.4928141     0.1473279
H           3.8482373    -2.8883552    -0.2164267
H           2.1242744    -3.2496466    -0.0417813
H           2.9838324    -2.3640241     1.2329047
C           2.5744894    -1.1659306    -0.5532924
H           2.5533776    -1.3702530    -1.6352192
C           3.7081457    -0.1465946    -0.3152643
H           3.7918800     0.0975126     0.7507873
H           3.5373439     0.7884837    -0.8575038
H           4.6698841    -0.5567253    -0.6458217
21
402_C9H12_0-6-15-17 (75,) energy =    -350.1922904
C           0.6945008     0.4830578    -0.9792307
H           1.2532191     0.8323101    -1.8457095
C          -0.5316352     1.0701992    -0.6726015
H          -0.9193111     1.8708644    -1.2975417
C          -1.2627561     0.6264279     0.4318232
H          -2.2206305     1.0793994     0.6734367
C           1.2220616    -0.5582185    -0.1992401
C          -0.7530728    -0.4062219     1.2175531
H          -1.3136984    -0.7628072     2.0780885
C           0.4769657    -0.9913829     0.9048605
H           0.8507583    -1.7962926     1.5305057
C           2.8493812    -2.5404686     0.0027708
H           3.7931763    -2.9337147    -0.3913343
H           2.0507615    -3.2387079    -0.2712323
H           2.9329583    -2.5336093     1.0962166
C           2.5896723    -1.1345285    -0.5560260
H           2.6233605    -1.2089427    -1.6530045
C           3.7145003    -0.1654996    -0.1346828
H           3.7313974    -0.0432057     0.9551277
H           3.5754826     0.8259788    -0.5784114
H           4.6939725    -0.5458328    -0.4492717
21
402_C9H12_0-6-15-17 (90,) energy =    -350.1927119
C           0.6159911     0.3927737    -1.0686909
H           1.1122637     0.6618657    -1.9992978
C          -0.6197139     0.9612500    -0.7592138
H          -1.0773115     1.6668221    -1.4481605
C          -1.2682241     0.6204743     0.4289636
H          -2.2325813     1.0580933     0.6731078
C           1.2322749    -0.5261716    -0.2070785
C          -0.6675117    -0.2902084     1.2988632
H          -1.1631757    -0.5647446     2.2267337
C           0.5697795    -0.8552426     0.9837773
H           1.0185574    -1.5621171     1.6761810
C           2.8068279    -2.5512919    -0.1503350
H           3.7650704    -2.9231945    -0.5309027
H           2.0107337    -3.1885581    -0.5506214
H           2.8218623    -2.6749017     0.9389356
C           2.6084599    -1.0821959    -0.5561542
H           2.7016512    -1.0316231    -1.6503393
C           3.7208197    -0.1921356     0.0356487
H           3.6801762    -0.1962233     1.1317560
H           3.6169822     0.8461627    -0.2973321
H           4.7114981    -0.5521264    -0.2679476
21
402_C9H12_0-6-15-17 (105,) energy =    -350.1931443
C           0.5566115     0.3001280    -1.1341032
H           0.9980492     0.4894319    -2.1105927
C          -0.6953767     0.8374608    -0.8289578
H          -1.2189812     1.4394355    -1.5674186
C          -1.2728461     0.6000264     0.4184554
H          -2.2480852     1.0145104     0.6597466
C           1.2566739    -0.4839606    -0.2078893
C          -0.5862329    -0.1760158     1.3545988
H          -1.0261152    -0.3669836     2.3303013
C           0.6645605    -0.7097814     1.0438459
H           1.1843398    -1.3092175     1.7872334
C           2.7608252    -2.5438583    -0.2915728
H           3.7390967    -2.9102831    -0.6245067
H           1.9863223    -3.1032599    -0.8275150
H           2.6677291    -2.7812328     0.7746943
C           2.6369267    -1.0318398    -0.5496196
H           2.7862659    -0.8715768    -1.6264265
C           3.7436202    -0.2507383     0.1863380
H           3.6514576    -0.3683230     1.2728866
H           3.6882645     0.8199151    -0.0384345
H           4.7365824    -0.6119803    -0.1078558
21
402_C9H12_0-6-15-17 (120,) energy =    -350.1932810
C           0.5252299    -0.6598799     1.3896463
H           0.9337943    -1.1804649     2.2534445
C          -0.7405556    -0.0758975     1.4723405
H          -1.3072415    -0.1453445     2.3974797
C          -1.2751269     0.5934208     0.3715611
H          -2.2600298     1.0489555     0.4313155
C           1.2816777    -0.5902062     0.2128895
C          -0.5331143     0.6728911    -0.8090259
H          -0.9393399     1.1923417    -1.6733857
C           0.7305563     0.0876484    -0.8851751
H           1.2938438     0.1604861    -1.8125700
C           3.7683013    -0.1665984    -0.0460932
H           4.7599046    -0.6349925    -0.0390288
H           3.7381722     0.5825803     0.7525077
H           3.6549460     0.3595990    -1.0014603
C           2.6645635    -1.2254231     0.1412517
H           2.8430116    -1.7182478     1.1068209
C           2.7487869    -2.3082616    -0.9507021
H           2.6000322    -1.8807568    -1.9493871
H           1.9870496    -3.0813909    -0.8022648
H           3.7332162    -2.7912611    -0.9403346
21
402_C9H12_0-6-15-17 (135,) energy =    -350.1929835
C           0.5775561    -0.5585203     1.4125099
H           1.0328609    -0.9946672     2.2995630
C          -0.6684109     0.0624407     1.5126015
H          -1.1743379     0.1051108     2.4738891
C          -1.2633261     0.6227776     0.3816649
H          -2.2345950     1.1049465     0.4541403
C           1.2552383    -0.6372411     0.1882340
C          -0.5993754     0.5570829    -0.8445944
H          -1.0523722     0.9904767    -1.7328241
C           0.6463896    -0.0646474    -0.9381361
H           1.1472325    -0.1024492    -1.9021216
C           3.7415267    -0.2069331     0.1006894
H           4.7354479    -0.6708499     0.1084535
H           3.6657780     0.4547761     0.9703762
H           3.6669535     0.4156992    -0.7991513
C           2.6349799    -1.2809768     0.1181817
H           2.7620027    -1.8682439     1.0381135
C           2.7941337    -2.2453341    -1.0700261
H           2.7454466    -1.7175687    -2.0295835
H           2.0120827    -3.0124557    -1.0691340
H           3.7666485    -2.7493083    -1.0245188
21
402_C9H12_0-6-15-17 (150,) energy =    -350.1925481
C           0.6489808    -0.4388365     1.4091086
H           1.1677544    -0.7798235     2.3032621
C          -0.5812706     0.2060296     1.5318247
H          -1.0126200     0.3634156     2.5172376
C          -1.2587232     0.6426140     0.3916677
H          -2.2193181     1.1428656     0.4817238
C           1.2323497    -0.6651516     0.1534380
C          -0.6920371     0.4264913    -0.8644398
H          -1.2108250     0.7594122    -1.7599900
C           0.5408375    -0.2195130    -0.9811222
H           0.9608221    -0.3782308    -1.9701827
C           3.7208810    -0.2712360     0.2326585
H           4.7090446    -0.7473067     0.2410664
H           3.6057280     0.2939419     1.1638019
H           3.6963508     0.4453852    -0.5972552
C           2.6049635    -1.3255970     0.0742787
H           2.6787109    -2.0101789     0.9312143
C           2.8280074    -2.1566625    -1.1986274
H           2.8686028    -1.5255573    -2.0941674
H           2.0321003    -2.8957686    -1.3423038
H           3.7823361    -2.6920510    -1.1376901
21
402_C9H12_0-6-15-17 (165,) energy =    -350.1920802
C           0.7200550    -0.3064484     1.3903688
H           1.2979993    -0.5446306     2.2814336
C          -0.5020331     0.3496084     1.5226812
H          -0.8654926     0.6199250     2.5109723
C          -1.2592782     0.6546230     0.3889219
H          -2.2139007     1.1646839     0.4869827
C           1.2185441    -0.6780254     0.1311681
C          -0.7792314     0.2935415    -0.8687480
H          -1.3594405     0.5217659    -1.7594007
C           0.4471201    -0.3653178    -0.9950321
H           0.7966900    -0.6380880    -1.9859492
C           3.7100963    -0.3606809     0.3801980
H           4.6856525    -0.8618907     0.3809673
H           3.5636684     0.0981375     1.3636094
H           3.7430674     0.4462179    -0.3618152
C           2.5823293    -1.3598725     0.0447402
H           2.5981719    -2.1415651     0.8186022
C           2.8652167    -2.0391053    -1.3023274
H           2.9553232    -1.3058833    -2.1127920
H           2.0762981    -2.7493907    -1.5738643
H           3.8119289    -2.5886048    -1.2545707
21
402_C9H12_0-6-15-17 (180,) energy =    -350.1910389
C           0.7850751    -0.1706506     1.3535190
H           1.4125664    -0.2977105     2.2325567
C          -0.4348621     0.4895346     1.4842521
H          -0.7374594     0.8752210     2.4546317
C          -1.2656559     0.6556712     0.3736530
H          -2.2170513     1.1718057     0.4712091
C           1.2098621    -0.6905827     0.1189218
C          -0.8602709     0.1496348    -0.8594793
H          -1.4952447     0.2697669    -1.7337589
C           0.3636814    -0.5143080    -0.9836770
H           0.6531348    -0.8957669    -1.9573304
C           3.7061666    -0.4726035     0.5117534
H           4.6652446    -1.0033774     0.4851525
H           3.5461952    -0.1247497     1.5368064
H           3.7900043     0.4122103    -0.1306515
C           2.5667524    -1.3917855     0.0212299
H           2.5330320    -2.2600444     0.6971362
C           2.9059871    -1.9113319    -1.3828527
H           2.9872237    -1.0889064    -2.1037977
H           2.1543267    -2.6162938    -1.7550194
H           3.8695127    -2.4324073    -1.3663541
