18
275_C6H8N2O2_10-0-1-2 (-165,) energy =    -493.4032532
C           2.4939159    -0.6342363    -1.2953024
N           1.1618297    -0.4877288    -1.0157116
C           0.1653456    -1.3716582    -1.5911671
H          -0.7346211    -0.8101263    -1.8640720
H          -0.1184335    -2.1764588    -0.8986861
H           0.5952491    -1.8177359    -2.4888704
H           0.9267068     0.0239544    -0.1740089
C           3.2808399     0.8743137     0.7262856
O           2.0614877     1.1797761     1.2769595
H           2.2007593     1.7094241     2.0755635
C           3.4166412     0.0803734    -0.4073120
N           4.7702668    -0.0006125    -0.6636198
H           5.1163066    -0.5448241    -1.4419751
C           5.4719641     0.7008292     0.2620029
H           6.5506218     0.7545586     0.2345486
C           4.5716778     1.2689887     1.1542667
H           4.8182337     1.8905616     2.0053158
O           2.9288990    -1.3256997    -2.2230138
18
275_C6H8N2O2_10-0-1-2 (-150,) energy =    -493.4009845
C           2.4810782    -0.5325558    -1.3963552
N           1.1393569    -0.3493717    -1.1511115
C           0.1852257    -1.3840969    -1.5220387
H          -0.7972821    -0.9402185    -1.7105811
H           0.0835788    -2.1510331    -0.7407787
H           0.5406227    -1.8610337    -2.4362868
H           0.9297506     0.1679539    -0.3042935
C           3.2718246     0.8881828     0.6870596
O           2.0530793     1.2263034     1.2175375
H           2.1930198     1.7247243     2.0359565
C           3.4056212     0.1249561    -0.4688470
N           4.7621354     0.0014111    -0.6953121
H           5.1074337    -0.5393881    -1.4764119
C           5.4656588     0.6419961     0.2713038
H           6.5460063     0.6508255     0.2747523
C           4.5653299     1.2168226     1.1594187
H           4.8137692     1.7996831     2.0368709
O           2.9146983    -1.2419471    -2.3096053
18
275_C6H8N2O2_10-0-1-2 (-135,) energy =    -493.3969086
C           2.4674643    -0.4498404    -1.5115101
N           1.1140404    -0.2525672    -1.2943698
C           0.2128100    -1.3940417    -1.4382621
H          -0.8149643    -1.0408877    -1.5636675
H           0.2545923    -2.0663715    -0.5688458
H           0.5037520    -1.9533963    -2.3284890
H           0.9257597     0.3048785    -0.4666057
C           3.2415376     0.8707334     0.6424168
O           2.0216504     1.2268038     1.1557492
H           2.1570325     1.7049944     1.9870038
C           3.3848594     0.1457335    -0.5382481
N           4.7441584    -0.0054920    -0.7356895
H           5.0964083    -0.5308084    -1.5242536
C           5.4379216     0.5757279     0.2735762
H           6.5175971     0.5514716     0.3062892
C           4.5305338     1.1423058     1.1600892
H           4.7716991     1.6838647     2.0655572
O           2.9045704    -1.1585175    -2.4217598
18
275_C6H8N2O2_10-0-1-2 (-120,) energy =    -493.3923148
C           2.4402093    -0.1492388    -1.4650849
N           1.0622414    -0.0990853    -0.9326139
C           0.4216521    -1.4330579    -0.9889828
H           0.4690299    -1.8772220    -1.9904673
H          -0.6228082    -1.3373972    -0.6796447
H           0.9292113    -2.0983613    -0.2840758
H           0.5443500     0.5163577    -1.5635850
C           3.2296423     0.6917168     0.8344450
O           2.0564362     0.8318868     1.4666258
H           1.3771461     0.5651367     0.7864143
C           3.4033213     0.2441584    -0.4918822
N           4.7717919     0.2584948    -0.7412332
H           5.1695951    -0.0102337    -1.6286893
C           5.4274371     0.6883874     0.3645355
H           6.5054818     0.7705174     0.3777628
C           4.5088866     0.9685769     1.3684426
H           4.7281802     1.3285776     2.3629044
O           2.6827286    -0.4943971    -2.6158111
18
275_C6H8N2O2_10-0-1-2 (-105,) energy =    -493.3929929
C           2.4114867    -0.0374692    -1.5424467
N           1.0366189    -0.0341703    -1.0236535
C           0.5179615    -1.4160549    -0.8800249
H           0.6027734    -1.9915974    -1.8106445
H          -0.5313156    -1.3712626    -0.5753767
H           1.0822899    -1.9279814    -0.0949561
H           0.4772024     0.4254112    -1.7446256
C           3.1854659     0.6584384     0.8094855
O           2.0034477     0.8196241     1.4248142
H           1.3263978     0.6481635     0.7163577
C           3.3712589     0.2581324    -0.5285373
N           4.7430676     0.2424519    -0.7535553
H           5.1491166     0.0112950    -1.6478707
C           5.3906968     0.6071318     0.3805504
H           6.4701968     0.6559916     0.4157022
C           4.4615005     0.8745623     1.3779865
H           4.6716800     1.1894578     2.3895958
O           2.6593106    -0.2493618    -2.7242282
18
275_C6H8N2O2_10-0-1-2 (-90,) energy =    -493.3941231
C           2.3984373     0.0539462    -1.6200828
N           1.0291155    -0.0061855    -1.1338644
C           0.6105478    -1.3832191    -0.7760571
H           0.7448318    -2.0904570    -1.6052954
H          -0.4439166    -1.3670086    -0.4867255
H           1.1958413    -1.7271835     0.0809204
H           0.4485509     0.3061079    -1.9132687
C           3.1501866     0.6126777     0.7780821
O           1.9590119     0.7787498     1.3844922
H           1.2876046     0.7065214     0.6610550
C           3.3490259     0.2669597    -0.5697431
N           4.7220448     0.2383359    -0.7759093
H           5.1361456     0.0518257    -1.6770128
C           5.3604560     0.5388956     0.3829048
H           6.4398796     0.5661049     0.4356023
C           4.4199398     0.7787643     1.3764450
H           4.6185831     1.0464435     2.4038993
O           2.6680782    -0.0225622    -2.8142005
18
275_C6H8N2O2_10-0-1-2 (-75,) energy =    -493.3949373
C           2.3902549     0.1284440    -1.6815286
N           1.0289778    -0.0219111    -1.2527301
C           0.6738061    -1.3509782    -0.7043698
H           0.8685528    -2.1646929    -1.4160028
H          -0.3902225    -1.3502807    -0.4516830
H           1.2406371    -1.5379165     0.2099231
H           0.4502636     0.1722669    -2.0692703
C           3.1253527     0.5700574     0.7545167
O           1.9292412     0.7404288     1.3632447
H           1.2590065     0.7543904     0.6439467
C           3.3291275     0.2615960    -0.5975878
N           4.7015486     0.2342070    -0.7963713
H           5.1173249     0.0943625    -1.7052749
C           5.3370762     0.4903225     0.3756282
H           6.4162196     0.5046172     0.4355475
C           4.3909878     0.7042580     1.3692323
H           4.5826305     0.9377410     2.4063764
O           2.6918971     0.1985339    -2.8696451
18
275_C6H8N2O2_10-0-1-2 (-60,) energy =    -493.3947054
C           2.3812316     0.1882681    -1.7158180
N           1.0344116    -0.0760394    -1.3728501
C           0.6990424    -1.3249628    -0.6615962
H           0.9678530    -2.2211435    -1.2375446
H          -0.3792553    -1.3385246    -0.4789017
H           1.2052494    -1.3630725     0.3033693
H           0.4806004     0.0276698    -2.2203696
C           3.1140896     0.5394905     0.7543350
O           1.9237423     0.7114738     1.3875967
H           1.2436291     0.8094659     0.6928444
C           3.3066263     0.2636709    -0.6032191
N           4.6767910     0.2442722    -0.8102539
H           5.0822667     0.1452189    -1.7293352
C           5.3232130     0.4618875     0.3641182
H           6.4026496     0.4684865     0.4172599
C           4.3828303     0.6494465     1.3674408
H           4.5783952     0.8542827     2.4099452
O           2.7193813     0.3924070    -2.8804351
18
275_C6H8N2O2_10-0-1-2 (-45,) energy =    -493.3934891
C           2.3619904     0.2115466    -1.7130953
N           1.0433831    -0.1774555    -1.4702675
C           0.6813554    -1.3151249    -0.6148302
H           1.0049864    -2.2764984    -1.0378384
H          -0.4072610    -1.3335441    -0.5084300
H           1.1145569    -1.2107690     0.3794160
H           0.5306399    -0.1524063    -2.3468717
C           3.1048365     0.5170475     0.7924976
O           1.9314472     0.6668227     1.4742381
H           1.2347135     0.8670094     0.8256980
C           3.2708598     0.2756978    -0.5736434
N           4.6370172     0.2810710    -0.8042419
H           5.0185332     0.2271320    -1.7375703
C           5.3071789     0.4736112     0.3609822
H           6.3872568     0.4908611     0.3920551
C           4.3838526     0.6220936     1.3851071
H           4.5939360     0.8017604     2.4294801
O           2.7357783     0.5109596    -2.8485882
18
275_C6H8N2O2_10-0-1-2 (-30,) energy =    -493.3921520
C           2.7049514    -1.1486338    -1.2569247
N           1.3376034    -1.1937007    -1.3511905
C           0.3633575    -0.7527199    -0.3593630
H          -0.3335164    -1.5720189    -0.1506074
H          -0.2059642     0.1185681    -0.6988210
H           0.8655952    -0.4848720     0.5710113
H           1.0529740    -1.9553662    -1.9548509
C           3.0722397     1.1578442     0.0688167
O           1.8430048     1.7550600     0.0297842
H           1.9331789     2.6493950     0.3911777
C           3.3645563    -0.0997459    -0.4651260
N           4.7184966    -0.2977328    -0.2426427
H           5.1793996    -1.1088538    -0.6328010
C           5.2636843     0.7623482     0.3975163
H           6.3121712     0.7898962     0.6572912
C           4.2620045     1.6961463     0.6192802
H           4.3720488     2.6520015     1.1155021
O           3.4053500    -1.9711333    -1.8628936
18
275_C6H8N2O2_10-0-1-2 (-15,) energy =    -493.3921942
C           2.7077986    -1.1529548    -1.2254005
N           1.3487328    -1.2868571    -1.2524684
C           0.3426226    -0.7049708    -0.3780653
H          -0.4504978    -1.4432709    -0.2225622
H          -0.0996665     0.2069766    -0.7925466
H           0.7771294    -0.4584505     0.5921525
H           1.0665327    -2.0480743    -1.8559359
C           3.0663173     1.1590609     0.1169635
O           1.8328957     1.7512981     0.1200320
H           1.9307142     2.6399253     0.4932427
C           3.3584430    -0.0895708    -0.4389086
N           4.7217221    -0.2693190    -0.2580739
H           5.1794453    -1.0680597    -0.6770759
C           5.2720719     0.7900876     0.3777387
H           6.3265561     0.8274104     0.6106944
C           4.2646425     1.7065903     0.6392524
H           4.3747321     2.6576664     1.1446680
O           3.4236326    -1.9459952    -1.8547110
18
275_C6H8N2O2_10-0-1-2 (0,) energy =    -493.3917118
C           2.7287166    -1.2481306    -1.2078600
N           1.3797387    -1.4553467    -1.1915763
C           0.3141842    -0.7328588    -0.5179086
H          -0.5386971    -1.4099559    -0.4131218
H          -0.0097618     0.1592986    -1.0661578
H           0.6297593    -0.4208743     0.4781673
H           1.1213532    -2.2239838    -1.7960932
C           3.0691938     1.0852002     0.1309794
O           1.8213216     1.6386063     0.2324681
H           1.9193793     2.5182999     0.6263196
C           3.3693113    -0.1441711    -0.4657592
N           4.7478224    -0.2729098    -0.3722856
H           5.2008217    -1.0615784    -0.8156215
C           5.2990522     0.7942451     0.2466517
H           6.3641327     0.8666818     0.4138154
C           4.2775088     1.6689542     0.5850996
H           4.3837743     2.6167111     1.0976635
O           3.4603288    -2.0380521    -1.8251643
18
275_C6H8N2O2_10-0-1-2 (15,) energy =    -493.3918560
C           2.7076121    -1.4072684    -0.8707643
N           1.3517999    -1.5359077    -0.9837858
C           0.2983763    -0.5349543    -0.9497098
H          -0.6213690    -1.0006688    -0.5807438
H           0.0963028    -0.1182302    -1.9475764
H           0.5599546     0.2776886    -0.2762182
H           1.1183690    -2.4302923    -1.3974847
C           3.0894476     0.9647991     0.3929909
O           1.8705007     1.3060712     0.9160852
H           1.9687607     2.1484399     1.3844686
C           3.3576643    -0.1804190    -0.3634373
N           4.7211332    -0.1399822    -0.6184613
H           5.1597676    -0.9250031    -1.0821359
C           5.2901413     0.9596422    -0.0764529
H           6.3463480     1.1626093    -0.1800728
C           4.2970649     1.6851170     0.5636237
H           4.4225579     2.6185913     1.0974854
O           3.4397014    -2.3410019    -1.2342191
18
275_C6H8N2O2_10-0-1-2 (30,) energy =    -493.3925109
C           2.7365685    -1.4385833    -0.8414233
N           1.3719613    -1.5843689    -0.8568645
C           0.3672987    -0.5394888    -1.0135951
H          -0.6089795    -0.9568226    -0.7490804
H           0.3144001    -0.1639668    -2.0463228
H           0.5703831     0.2926800    -0.3424186
H           1.1350400    -2.4815716    -1.2652813
C           3.1003661     0.9075918     0.4454842
O           1.8846820     1.1901582     1.0067994
H           1.9742387     2.0024508     1.5273236
C           3.3806526    -0.2076266    -0.3492872
N           4.7320204    -0.1179062    -0.6492941
H           5.1840589    -0.8757943    -1.1434984
C           5.2832539     0.9855251    -0.0949891
H           6.3286466     1.2252621    -0.2261604
C           4.2895000     1.6625921     0.5958085
H           4.4039644     2.5865011     1.1483726
O           3.4620775    -2.3624593    -1.2367313
18
275_C6H8N2O2_10-0-1-2 (45,) energy =    -493.3921901
C           2.6969284    -1.4127825    -0.8298656
N           1.3294473    -1.5655183    -0.7119674
C           0.3494934    -0.5222951    -1.0161527
H          -0.6413509    -0.8890652    -0.7325249
H           0.3315948    -0.2626671    -2.0848850
H           0.5541389     0.3735060    -0.4316947
H           1.0825151    -2.4733011    -1.0948009
C           3.0872436     0.8908595     0.4966396
O           1.8735187     1.1515344     1.0692328
H           1.9618508     1.9468355     1.6157158
C           3.3628866    -0.2043981    -0.3263507
N           4.7065204    -0.0980139    -0.6526106
H           5.1554102    -0.8343993    -1.1806114
C           5.2599358     0.9953227    -0.0799559
H           6.3021741     1.2437617    -0.2199451
C           4.2743279     1.6491735     0.6451523
H           4.3941994     2.5602136     1.2174528
O           3.3922041    -2.3238385    -1.2978470
18
275_C6H8N2O2_10-0-1-2 (60,) energy =    -493.3903880
C           2.6805613    -1.3738390    -0.8568738
N           1.3207447    -1.5334666    -0.6033250
C           0.3393864    -0.5387539    -1.0553155
H          -0.6517715    -0.8551062    -0.7176002
H           0.3195231    -0.4328191    -2.1497672
H           0.5515836     0.4297235    -0.6020371
H           1.0769263    -2.4642037    -0.9353783
C           3.0988953     0.8789305     0.5140685
O           1.8794791     1.1284265     1.0751131
H           1.9631086     1.9047361     1.6490833
C           3.3740293    -0.1966853    -0.3340162
N           4.7142180    -0.0809375    -0.6698812
H           5.1637521    -0.8004031    -1.2198447
C           5.2695798     0.9959660    -0.0677060
H           6.3119685     1.2466266    -0.2027353
C           4.2870936     1.6319911     0.6784267
H           4.4103876     2.5296124     1.2707533
O           3.3350713    -2.2682166    -1.4043502
18
275_C6H8N2O2_10-0-1-2 (75,) energy =    -493.3867854
C           2.6613967    -1.3179231    -0.8822201
N           1.3167015    -1.4804575    -0.5043567
C           0.3146000    -0.5779126    -1.0977319
H          -0.6719546    -0.8616210    -0.7201947
H           0.2991060    -0.6229447    -2.1964074
H           0.5089237     0.4488168    -0.7813510
H           1.0882455    -2.4393521    -0.7663013
C           3.1228586     0.8761330     0.5362042
O           1.8988530     1.1259524     1.0817741
H           1.9819474     1.8840059     1.6798568
C           3.3939021    -0.1867890    -0.3292085
N           4.7320091    -0.0694464    -0.6722195
H           5.1758393    -0.7677501    -1.2526501
C           5.2937016     0.9916654    -0.0475702
H           6.3381328     1.2378490    -0.1753572
C           4.3161381     1.6178101     0.7143759
H           4.4472544     2.5027960     1.3236517
O           3.2611335    -2.1879380    -1.5199299
18
275_C6H8N2O2_10-0-1-2 (90,) energy =    -493.3817281
C           2.6278494    -1.2430844    -0.8960559
N           1.2957881    -1.3984511    -0.4241822
C           0.2711938    -0.6446540    -1.1738508
H          -0.7126803    -0.9013722    -0.7709918
H           0.2825830    -0.8603092    -2.2523465
H           0.4239121     0.4275094    -1.0224225
H           1.1013599    -2.3896081    -0.5777267
C           3.1549609     0.8828174     0.5770163
O           1.9382341     1.1385028     1.1294511
H           2.0349678     1.8796218     1.7466583
C           3.4033181    -0.1611037    -0.3197883
N           4.7376628    -0.0492684    -0.6813906
H           5.1662649    -0.7273597    -1.2958539
C           5.3198158     0.9853199    -0.0317496
H           6.3662037     1.2207140    -0.1643421
C           4.3607951     1.6020235     0.7617610
H           4.5126109     2.4679541     1.3931603
O           3.1651781    -2.0832941    -1.6201351
18
275_C6H8N2O2_10-0-1-2 (105,) energy =    -493.3854696
C           2.5922783    -1.3213279    -0.9972270
N           1.2482246    -1.4581905    -0.5970085
C           0.2619493    -0.9200898    -1.5472829
H           0.3346050     0.1718878    -1.6623928
H          -0.7436626    -1.1731296    -1.1993818
H           0.4170245    -1.3885050    -2.5217850
H           1.1131888    -0.9967811     0.3008879
C           3.1634719     0.6472228     0.6672438
O           1.9651420     0.7706948     1.3161932
H           2.0363060     1.4774961     1.9749139
C           3.3938977    -0.2946926    -0.3367026
N           4.7106928    -0.1238871    -0.7268124
H           5.1060256    -0.6822629    -1.4709243
C           5.2862815     0.8835440    -0.0284969
H           6.3097198     1.1825555    -0.2040574
C           4.3492781     1.3934582     0.8622149
H           4.5055015     2.2034454     1.5627363
O           3.0529812    -1.9412059    -1.9538534
18
275_C6H8N2O2_10-0-1-2 (120,) energy =    -493.3914714
C           2.5504615    -1.2007312    -1.0173294
N           1.2231800    -1.3143585    -0.6003002
C           0.1894268    -1.0324908    -1.6015686
H           0.1368359     0.0357070    -1.8591122
H          -0.7839206    -1.3533612    -1.2194071
H           0.4127125    -1.6020132    -2.5055312
H           1.0597311    -0.7749653     0.2462765
C           3.2004001     0.6848326     0.7162956
O           2.0076012     0.8294593     1.3733192
H           2.1017726     1.5173344     2.0487366
C           3.3913009    -0.2286431    -0.3196904
N           4.7109988    -0.0949495    -0.7106311
H           5.0797141    -0.6411912    -1.4771275
C           5.3281220     0.8655953     0.0189814
H           6.3615168     1.1312206    -0.1514733
C           4.4145127     1.3788983     0.9314422
H           4.6037072     2.1572113     1.6592551
O           2.9859236    -1.7967767    -2.0035136
18
275_C6H8N2O2_10-0-1-2 (135,) energy =    -493.3969086
C           2.5237114    -1.0701421    -1.0473890
N           1.2096575    -1.1603281    -0.6197274
C           0.1479790    -1.1349296    -1.6237613
H          -0.0446727    -0.1182625    -1.9964787
H          -0.7756481    -1.5363052    -1.1964519
H           0.4504967    -1.7643473    -2.4618227
H           1.0160525    -0.5696085     0.1833535
C           3.2305618     0.7277916     0.7556875
O           2.0360944     0.8963232     1.4062759
H           2.1442794     1.5692591     2.0943411
C           3.3965813    -0.1570160    -0.3072064
N           4.7218954    -0.0603845    -0.6862878
H           5.0758769    -0.5941649    -1.4683687
C           5.3694926     0.8511238     0.0802056
H           6.4143673     1.0795669    -0.0727597
C           4.4684702     1.3678905     1.0028975
H           4.6811029     2.1125704     1.7589195
O           2.9442165    -1.6522532    -2.0504726
18
275_C6H8N2O2_10-0-1-2 (150,) energy =    -493.4009850
C           2.5069994    -0.9356764    -1.0931000
N           1.1985370    -0.9943327    -0.6707917
C           0.1333116    -1.2227502    -1.6361853
H          -0.2008941    -0.2889752    -2.1108865
H          -0.7234223    -1.6957301    -1.1461849
H           0.5138313    -1.8911955    -2.4094912
H           0.9744707    -0.3777084     0.1026761
C           3.2573453     0.7687548     0.7821235
O           2.0589905     0.9572943     1.4220286
H           2.1756833     1.6167934     2.1215032
C           3.4037666    -0.0815941    -0.3096840
N           4.7350511    -0.0205522    -0.6710824
H           5.0786456    -0.5440057    -1.4646479
C           5.4084725     0.8344162     0.1383452
H           6.4636248     1.0262639     0.0076438
C           4.5156684     1.3506783     1.0690045
H           4.7465525     2.0574591     1.8554696
O           2.9239076    -1.5202372    -2.0979583
18
275_C6H8N2O2_10-0-1-2 (165,) energy =    -493.4032532
C           2.4893498    -0.8088029    -1.1589535
N           1.1790463    -0.8218735    -0.7633466
C           0.1257767    -1.2931348    -1.6435128
H          -0.3886711    -0.4633169    -2.1478721
H          -0.6133195    -1.8744871    -1.0817466
H           0.5846047    -1.9319579    -2.3991973
H           0.9258094    -0.2150174     0.0067239
C           3.2582007     0.8150272     0.7782765
O           2.0498524     1.0354200     1.3900417
H           2.1767323     1.6555375     2.1228552
C           3.3993165    -0.0083237    -0.3335295
N           4.7393613     0.0120897    -0.6631079
H           5.0838175    -0.5125438    -1.4554804
C           5.4264686     0.8120687     0.1905784
H           6.4922104     0.9607720     0.0944455
C           4.5312399     1.3361671     1.1144047
H           4.7698358     2.0101820     1.9269390
O           2.9130985    -1.4138148    -2.1502292
18
275_C6H8N2O2_10-0-1-2 (180,) energy =    -493.4038951
C           2.4935508    -0.7235068    -1.2201652
N           1.1729463    -0.6541079    -0.8798476
C           0.1413968    -1.3453190    -1.6261632
H          -0.5867172    -0.6408341    -2.0476353
H          -0.3939955    -2.0651872    -0.9943421
H           0.6295827    -1.8817561    -2.4409513
H           0.9203304    -0.0959147    -0.0746310
C           3.2755606     0.8410955     0.7601980
O           2.0599645     1.1040762     1.3412335
H           2.1966978     1.6735832     2.1123255
C           3.4124821     0.0337170    -0.3632308
N           4.7601976     0.0035413    -0.6571786
H           5.1048895    -0.5304249    -1.4431808
C           5.4577065     0.7531341     0.2335245
H           6.5314635     0.8543701     0.1710752
C           4.5601720     1.2982268     1.1427576
H           4.8044498     1.9447998     1.9756635
O           2.9252889    -1.3719299    -2.1806415
