23
355_C10H12O_0-6-18-16 (-165,) energy =    -463.5001362
C           1.1466528    -1.0179020     0.5106348
H           0.6318481    -0.3703216     1.2271578
H           1.8522859    -1.6502413     1.0600178
C           0.1942350    -1.8908195    -0.3216479
H          -0.7223659    -1.3372227    -0.5549745
H          -0.0984904    -2.8132064     0.1890750
C           1.8742380    -0.2368122    -0.5878095
H           1.1880921     0.5404425    -0.9707278
O           2.0901487    -1.2127215    -1.6227080
C           1.0119747    -2.1567857    -1.6067559
H           1.4498648    -3.1624359    -1.6212104
H           0.3988492    -2.0423135    -2.5115093
C           5.6609279     1.7130012     0.1872736
H           6.6114188     2.2088924     0.3659044
C           4.9061901     2.0262517    -0.9455604
H           5.2679776     2.7664404    -1.6544892
C           3.6844078     1.3929736    -1.1652552
H           3.0971652     1.6373288    -2.0473201
C           3.1965278     0.4323340    -0.2683129
C           3.9630270     0.1251698     0.8608637
H           3.6098232    -0.6109083     1.5763084
C           5.1847178     0.7626042     1.0900491
H           5.7629748     0.5145738     1.9764217
23
355_C10H12O_0-6-18-16 (-150,) energy =    -463.5006990
C           1.0145357    -0.8798819     0.4507385
H           0.4462666    -0.1401525     1.0234188
H           1.6612939    -1.4249603     1.1459564
C           0.1293118    -1.8594635    -0.3330775
H          -0.7489088    -1.3403595    -0.7339143
H          -0.2295654    -2.6962631     0.2740352
C           1.8419033    -0.2465637    -0.6750812
H           1.2122769     0.4926976    -1.2000215
O           2.1152807    -1.3443613    -1.5670417
C           1.0624832    -2.3121607    -1.4759208
H           1.5184995    -3.2899747    -1.2734934
H           0.5343585    -2.3793328    -2.4367900
C           5.6349225     1.6571676     0.1792027
H           6.5903325     2.1355349     0.3782093
C           4.8227097     2.1138811    -0.8593700
H           5.1433707     2.9481705    -1.4777996
C           3.5957503     1.4973000    -1.1056843
H           2.9661898     1.8537044    -1.9179335
C           3.1549320     0.4234567    -0.3223014
C           3.9867551    -0.0353231     0.7067647
H           3.6837704    -0.8803027     1.3177129
C           5.2132283     0.5793517     0.9600910
H           5.8419168     0.2136453     1.7678872
23
355_C10H12O_0-6-18-16 (-135,) energy =    -463.5020090
C           0.9714694    -0.7562811     0.3839495
H           0.3799777     0.0507269     0.8278925
H           1.5800316    -1.2043988     1.1767353
C           0.1215534    -1.8235260    -0.3188702
H          -0.7298681    -1.3566082    -0.8273778
H          -0.2758869    -2.5787604     0.3662236
C           1.8690448    -0.2666480    -0.7629179
H           1.2887799     0.4193690    -1.4031455
O           2.1712776    -1.4639912    -1.5023651
C           1.1102360    -2.4143919    -1.3453438
H           1.5498625    -3.3586795    -0.9985098
H           0.6334491    -2.6019637    -2.3168618
C           5.6186106     1.6555561     0.2157784
H           6.5636264     2.1368453     0.4535774
C           4.7626361     2.2178372    -0.7306255
H           5.0385748     3.1378226    -1.2393576
C           3.5505409     1.5933297    -1.0320442
H           2.8886710     2.0304701    -1.7764322
C           3.1682263     0.4130892    -0.3860129
C           4.0465851    -0.1538483     0.5474789
H           3.7887772    -1.0919591     1.0308875
C           5.2582892     0.4640324     0.8509887
H           5.9260431     0.0131750     1.5806254
23
355_C10H12O_0-6-18-16 (-120,) energy =    -463.5032942
C           0.9493922    -0.6476353     0.3092999
H           0.3609640     0.2143181     0.6391067
H           1.5214304    -1.0162620     1.1683877
C           0.1049866    -1.7684586    -0.3107222
H          -0.7103873    -1.3438213    -0.9077762
H          -0.3416519    -2.4354395     0.4331665
C           1.9089164    -0.3031193    -0.8427814
H           1.3799371     0.3286199    -1.5762996
O           2.2088594    -1.5768333    -1.4365742
C           1.1241135    -2.4882746    -1.2172907
H           1.5304204    -3.3917800    -0.7440989
H           0.6869399    -2.7805257    -2.1812618
C           5.5973605     1.6590921     0.2653347
H           6.5244616     2.1526184     0.5448851
C           4.6965784     2.2916456    -0.5907367
H           4.9194939     3.2792253    -0.9861827
C           3.5090133     1.6505587    -0.9514257
H           2.8133323     2.1422652    -1.6280177
C           3.1985669     0.3829234    -0.4504496
C           4.1188043    -0.2515252     0.3952959
H           3.9079271    -1.2544414     0.7558612
C           5.3068068     0.3817822     0.7537247
H           6.0112175    -0.1226037     1.4102585
23
355_C10H12O_0-6-18-16 (-105,) energy =    -463.5041257
C           0.8960310    -0.5217190     0.1992188
H           0.3177135     0.3841317     0.4055392
H           1.4144743    -0.8116215     1.1208392
C           0.0563834    -1.6831137    -0.3459014
H          -0.6881610    -1.3113660    -1.0598151
H          -0.4747062    -2.2407493     0.4318356
C           1.9246024    -0.3206851    -0.9298830
H           1.4626618     0.2733095    -1.7360558
O           2.1899376    -1.6460398    -1.4147148
C           1.1178985    -2.5320986    -1.0644932
H           1.5153686    -3.3205811    -0.4100374
H           0.7336134    -3.0103824    -1.9739489
C           5.5757878     1.6228490     0.3226267
H           6.4901951     2.1139414     0.6450080
C           4.6290914     2.3229200    -0.4253591
H           4.8033292     3.3621325    -0.6921137
C           3.4597494     1.6848478    -0.8446276
H           2.7297966     2.2310103    -1.4386881
C           3.2146480     0.3492175    -0.5105508
C           4.1761679    -0.3497218     0.2307998
H           4.0083419    -1.3979719     0.4597038
C           5.3472074     0.2823148     0.6452038
H           6.0869887    -0.2729311     1.2163183
23
355_C10H12O_0-6-18-16 (-90,) energy =    -463.5044918
C           0.8741762    -0.4372591     0.1071353
H           0.3133827     0.4989395     0.1865238
H           1.3329899    -0.6444591     1.0812060
C           0.0327271    -1.6285848    -0.3660190
H          -0.6582236    -1.3158750    -1.1578811
H          -0.5577068    -2.0905207     0.4313196
C           1.9709537    -0.3801590    -0.9745314
H           1.5717659     0.1424903    -1.8603274
O           2.2196858    -1.7501522    -1.3131857
C           1.1081452    -2.5719050    -0.9291549
H           1.4495093    -3.2922933    -0.1726086
H           0.7617192    -3.1373589    -1.8028028
C           5.5607325     1.6272638     0.3522669
H           6.4571033     2.1369326     0.6957879
C           4.5440859     2.3440601    -0.2811894
H           4.6458617     3.4152851    -0.4351179
C           3.3990181     1.6842189    -0.7292370
H           2.6152882     2.2455674    -1.2344821
C           3.2486436     0.3054437    -0.5407127
C           4.2749039    -0.4078051     0.0894131
H           4.1716196    -1.4814987     0.2083363
C           5.4234333     0.2491250     0.5316986
H           6.2161583    -0.3177335     1.0135136
23
355_C10H12O_0-6-18-16 (-75,) energy =    -463.5043609
C           1.7428644    -1.6643501    -1.1342818
H           2.3450028    -2.5771839    -1.1017671
H           2.0356122    -1.0947891    -2.0242955
C           0.2304196    -1.9150023    -1.1240291
H          -0.0201683    -2.7144074    -0.4163822
H          -0.1742745    -2.1903728    -2.1029277
C           1.9275733    -0.7889484     0.1229094
H           2.0065072    -1.4453100     1.0057091
O           0.7180817    -0.0274594     0.2352540
C          -0.2987233    -0.5668774    -0.6191699
H          -0.4776803     0.1279416    -1.4530977
H          -1.2280982    -0.6546238    -0.0448477
C           5.4409861     1.7247442    -0.0768536
H           6.3282290     2.3496939    -0.1357520
C           5.5600020     0.3591062     0.1921820
H           6.5410255    -0.0837831     0.3442963
C           4.4191590    -0.4383131     0.2742287
H           4.5193002    -1.4995513     0.4948741
C           3.1451236     0.1128156     0.0819203
C           3.0330754     1.4808730    -0.1838140
H           2.0452182     1.9093789    -0.3137645
C           4.1748331     2.2813259    -0.2610522
H           4.0726004     3.3448127    -0.4623255
23
355_C10H12O_0-6-18-16 (-60,) energy =    -463.5038520
C           1.7996674    -1.7830945    -0.9735018
H           2.3241945    -2.7212419    -0.7701392
H           2.2180994    -1.3545532    -1.8915162
C           0.2789876    -1.9427777    -1.0988989
H          -0.1003864    -2.6437900    -0.3459826
H          -0.0407980    -2.2939990    -2.0849954
C           1.9329318    -0.7700581     0.1876341
H           1.9793144    -1.3205169     1.1412939
O           0.7131744    -0.0133534     0.1934876
C          -0.1950331    -0.5209213    -0.7885386
H          -0.1661197     0.1095233    -1.6910241
H          -1.2066455    -0.4745431    -0.3715447
C           5.4347396     1.7596601    -0.1010863
H           6.3170610     2.3898152    -0.1762339
C           5.5678301     0.3716390    -0.0140443
H           6.5550032    -0.0835713    -0.0222554
C           4.4345838    -0.4346052     0.0840348
H           4.5498329    -1.5142944     0.1572324
C           3.1518478     0.1314540     0.0953914
C           3.0265365     1.5211214     0.0102826
H           2.0338478     1.9572134     0.0249329
C           4.1616233     2.3295074    -0.0874041
H           4.0482000     3.4089003    -0.1513797
23
355_C10H12O_0-6-18-16 (-45,) energy =    -463.5032345
C           1.7786778    -1.8563595    -0.7636420
H           2.1680386    -2.8034625    -0.3790688
H           2.3432991    -1.6032762    -1.6679407
C           0.2737794    -1.8980295    -1.0690920
H          -0.2609896    -2.4847435    -0.3131312
H           0.0445913    -2.3157902    -2.0545505
C           1.8921126    -0.7073229     0.2726208
H           1.8985211    -1.1302496     1.2888498
O           0.6777713     0.0551471     0.1657463
C          -0.0933068    -0.4199157    -0.9385193
H           0.1633052     0.1316254    -1.8575036
H          -1.1480528    -0.2382476    -0.7100521
C           5.4150269     1.7853701    -0.1280745
H           6.2999408     2.4091198    -0.2234352
C           5.5219913     0.3961348    -0.2197191
H           6.4909815    -0.0666948    -0.3890562
C           4.3847716    -0.4030938    -0.1009795
H           4.4824355    -1.4839861    -0.1740256
C           3.1246427     0.1714867     0.1162584
C           3.0269464     1.5641338     0.2085175
H           2.0510493     2.0096436     0.3680085
C           4.1638734     2.3652156     0.0853097
H           4.0698804     3.4460690     0.1558436
23
355_C10H12O_0-6-18-16 (-30,) energy =    -463.5022924
C           1.7712151    -1.8476426    -0.6765031
H           2.1547768    -2.7425855    -0.1778780
H           2.3438619    -1.7024917    -1.5998044
C           0.2704401    -1.9215004    -0.9934819
H          -0.2783583    -2.3912127    -0.1687448
H           0.0496204    -2.4754003    -1.9114016
C           1.8662941    -0.5894529     0.2140220
H           1.7731674    -0.8918257     1.2696637
O           0.7013950     0.2052816    -0.0819720
C          -0.0852851    -0.4367189    -1.0864060
H           0.1609989    -0.0350522    -2.0825304
H          -1.1382803    -0.2189372    -0.8797247
C           5.4793558     1.7823832    -0.1189307
H           6.3831685     2.3813324    -0.1940926
C           5.5236106     0.4099440    -0.3639591
H           6.4626121    -0.0667882    -0.6337265
C           4.3601175    -0.3572522    -0.2720901
H           4.4133274    -1.4255242    -0.4652070
C           3.1383931     0.2329859     0.0743796
C           3.1039370     1.6128897     0.3163868
H           2.1556992     2.0787789     0.5633908
C           4.2638587     2.3809884     0.2199735
H           4.2178465     3.4509239     0.4071044
23
355_C10H12O_0-6-18-16 (-15,) energy =    -463.5013012
C           1.8276351    -1.8629104    -0.5766596
H           2.2328723    -2.6174373     0.1044313
H           2.4180595    -1.8800751    -1.4987903
C           0.3282310    -2.0737954    -0.8899013
H          -0.1586841    -2.6923406    -0.1290944
H           0.1849296    -2.5703958    -1.8539138
C           1.8473214    -0.4461148     0.0161647
H           1.5004499    -0.5066662     1.0663342
O           0.8584327     0.2548324    -0.7463848
C          -0.2504713    -0.6317022    -0.8816577
H          -0.7725844    -0.3617686    -1.8041449
H          -0.9481548    -0.4979529    -0.0399321
C           5.5280157     1.8261951    -0.0193837
H           6.4473109     2.4059760    -0.0214222
C           5.5625010     0.4541955    -0.2638530
H           6.5095844    -0.0422828    -0.4589626
C           4.3792091    -0.2893960    -0.2654012
H           4.4242763    -1.3575093    -0.4569704
C           3.1489566     0.3262385    -0.0124677
C           3.1250502     1.7071647     0.2321966
H           2.1713173     2.1946970     0.4107991
C           4.3027010     2.4515476     0.2267791
H           4.2653449     3.5217450     0.4135575
23
355_C10H12O_0-6-18-16 (0,) energy =    -463.5005622
C           1.8545850    -1.9237575    -0.3516660
H           2.2607224    -2.6048691     0.4025235
H           2.4334037    -2.0425596    -1.2738080
C           0.3549771    -2.1495095    -0.6304425
H          -0.1489778    -2.5578198     0.2520595
H           0.1880350    -2.8494887    -1.4544107
C           1.8767925    -0.4550695     0.0858352
H           1.4864081    -0.3970479     1.1199462
O           0.9341174     0.1730042    -0.7946482
C          -0.1693015    -0.7222642    -0.9486606
H          -0.5339434    -0.6144683    -1.9752568
H          -0.9853546    -0.4411112    -0.2658862
C           5.5503999     1.8275562    -0.0345890
H           6.4653066     2.4136847    -0.0598208
C           5.5633535     0.4892585    -0.4241588
H           6.4893708     0.0263026    -0.7552997
C           4.3862225    -0.2638032    -0.3941064
H           4.4172233    -1.3053556    -0.6990924
C           3.1844673     0.3074662     0.0353409
C           3.1839363     1.6545445     0.4266829
H           2.2515255     2.1101122     0.7495312
C           4.3532498     2.4104255     0.3902078
H           4.3325613     3.4538264     0.6941308
23
355_C10H12O_0-6-18-16 (15,) energy =    -463.5001342
C           1.8638429    -1.9450618    -0.4701978
H           2.2113379    -2.6113401     0.3255086
H           2.5057441    -2.0876690    -1.3460278
C           0.3910293    -2.1658331    -0.8539405
H          -0.1965090    -2.4437371     0.0281500
H           0.2604288    -2.9568296    -1.5985113
C           1.8519770    -0.4702465    -0.0577833
H           1.3737191    -0.3926672     0.9359320
O           0.9957109     0.1492728    -1.0330147
C          -0.0415485    -0.7747839    -1.3811669
H          -0.1503537    -0.7521138    -2.4717074
H          -0.9965889    -0.4558909    -0.9395093
C           5.5123636     1.8325802     0.1298174
H           6.4226764     2.4240107     0.1825966
C           5.5136145     0.5989760    -0.5205732
H           6.4260590     0.2243534    -0.9773174
C           4.3440773    -0.1619003    -0.5889803
H           4.3680501    -1.1200638    -1.0986762
C           3.1589868     0.2948833    -0.0025403
C           3.1721800     1.5345936     0.6522482
H           2.2561420     1.9016335     1.1091185
C           4.3342672     2.3007962     0.7163475
H           4.3225536     3.2602606     1.2268654
23
355_C10H12O_0-6-18-16 (30,) energy =    -463.5005565
C           1.9055359    -1.9407036    -0.2004682
H           2.1805263    -2.5155633     0.6894145
H           2.6150792    -2.1869129    -0.9973223
C           0.4684314    -2.1923060    -0.6764451
H          -0.2067862    -2.2749598     0.1833281
H           0.3617439    -3.1036602    -1.2729480
C           1.8794328    -0.4294019     0.0599634
H           1.3767505    -0.2497301     1.0256240
O           1.0508744     0.1019232    -0.9950154
C           0.1669968    -0.9155336    -1.4821897
H           0.3596492    -1.0572433    -2.5546760
H          -0.8732167    -0.5837206    -1.3679206
C           5.5763234     1.8252474     0.1495741
H           6.4983357     2.3999156     0.1789046
C           5.4852744     0.6859034    -0.6518033
H           6.3368342     0.3703977    -1.2491866
C           4.3034968    -0.0550184    -0.6891126
H           4.2532480    -0.9341795    -1.3242958
C           3.1929397     0.3286860     0.0727688
C           3.3000733     1.4712822     0.8759513
H           2.4460140     1.7782109     1.4755083
C           4.4773421     2.2184338     0.9144699
H           4.5370480     3.1030440     1.5431594
23
355_C10H12O_0-6-18-16 (45,) energy =    -463.5018695
C           1.8684153    -1.8756130    -0.0625800
H           2.0674039    -2.3449058     0.9060959
H           2.6522927    -2.1925632    -0.7586864
C           0.4797798    -2.1980084    -0.6289434
H          -0.2659717    -2.1994937     0.1747124
H           0.4297173    -3.1689869    -1.1314675
C           1.8180939    -0.3424783     0.0263932
H           1.2453796    -0.0554834     0.9241476
O           1.0804678     0.0550721    -1.1465091
C           0.2397463    -1.0183396    -1.5885420
H           0.5165510    -1.2707589    -2.6214205
H          -0.8068803    -0.6871863    -1.5918173
C           5.5894311     1.7763712     0.1559166
H           6.5366638     2.3077258     0.1961065
C           5.3952371     0.7574120    -0.7804724
H           6.1918160     0.4952725    -1.4720573
C           4.1824685     0.0725180    -0.8307805
H           4.0397258    -0.7064805    -1.5744037
C           3.1399353     0.3969326     0.0480290
C           3.3468216     1.4189003     0.9807382
H           2.5465330     1.6797207     1.6697756
C           4.5604014     2.1073547     1.0368364
H           4.6997560     2.8997104     1.7676638
23
355_C10H12O_0-6-18-16 (60,) energy =    -463.5033062
C           1.8379229    -1.8024738     0.0642072
H           1.9607410    -2.1613076     1.0908773
H           2.6833619    -2.1721705    -0.5272158
C           0.5038280    -2.2057398    -0.5756111
H          -0.3065452    -2.1325679     0.1592249
H           0.5022054    -3.2253864    -0.9733402
C           1.7738676    -0.2674257    -0.0199515
H           1.1394605     0.1129321     0.7980097
O           1.1273830    -0.0097104    -1.2790264
C           0.3376824    -1.1396509    -1.6732611
H           0.7052046    -1.4962477    -2.6453632
H          -0.7068524    -0.8281684    -1.8017667
C           5.6051970     1.7256593     0.1631042
H           6.5727396     2.2179665     0.2151984
C           5.3211115     0.8458953    -0.8856262
H           6.0673327     0.6544673    -1.6525445
C           4.0817757     0.2131698    -0.9526851
H           3.8579610    -0.4545782    -1.7800696
C           3.1032992     0.4534003     0.0218598
C           3.3956485     1.3388101     1.0634579
H           2.6422621     1.5368056     1.8229181
C           4.6388669     1.9716042     1.1378005
H           4.8479932     2.6584958     1.9537874
23
355_C10H12O_0-6-18-16 (75,) energy =    -463.5042095
C           1.7853294    -1.7248012     0.1733591
H           1.8306635    -1.9700827     1.2388726
H           2.6700746    -2.1524036    -0.3128477
C           0.4986202    -2.1938972    -0.5164588
H          -0.3635735    -2.0411044     0.1433552
H           0.5175097    -3.2501875    -0.8023320
C           1.7418055    -0.2061663    -0.0820342
H           1.0620400     0.2620402     0.6497665
O           1.1806736    -0.0806833    -1.3965666
C           0.4241999    -1.2526450    -1.7312373
H           0.8691951    -1.7090311    -2.6261727
H          -0.6047693    -0.9615662    -1.9768977
C           5.6178353     1.6861026     0.1699103
H           6.5980655     2.1502854     0.2399449
C           5.2652574     0.9581848    -0.9698094
H           5.9710037     0.8572493    -1.7905010
C           4.0080856     0.3633242    -1.0614694
H           3.7239880    -0.1850797    -1.9546223
C           3.0824452     0.4914569    -0.0177162
C           3.4399943     1.2294341     1.1150976
H           2.7244563     1.3454634     1.9266854
C           4.7012116     1.8209215     1.2128366
H           4.9627144     2.3926431     2.0995340
23
355_C10H12O_0-6-18-16 (90,) energy =    -463.5045057
C           1.7179105    -1.6473406     0.2703673
H           1.6783589    -1.7819534     1.3555339
H           2.6284965    -2.1323610    -0.1007460
C           0.4790312    -2.1715532    -0.4657323
H          -0.4293292    -1.9380952     0.1022463
H           0.4988014    -3.2522566    -0.6375250
C           1.7225946    -0.1611747    -0.1401865
H           1.0155393     0.3890519     0.5035656
O           1.2313556    -0.1506767    -1.4860391
C           0.5218711    -1.3638619    -1.7725978
H           1.0573844    -1.9064110    -2.5644474
H          -0.4767327    -1.1129589    -2.1503344
C           5.6278426     1.6642355     0.1698088
H           6.6138186     2.1134390     0.2552167
C           5.2180596     1.0922550    -1.0363210
H           5.8848268     1.0977821    -1.8949925
C           3.9516625     0.5173655    -1.1488813
H           3.6204963     0.0882715    -2.0888911
C           3.0772570     0.5096260    -0.0563311
C           3.4902717     1.0959255     1.1459924
H           2.8117270     1.1107781     1.9969105
C           4.7588052     1.6651391     1.2624847
H           5.0643465     2.1166602     2.2029031
23
355_C10H12O_0-6-18-16 (105,) energy =    -463.5043323
C           1.6319760    -1.5472954     0.3545573
H           1.4912163    -1.5731435     1.4392034
H           2.5565504    -2.0872227     0.1185277
C           0.4515479    -2.1200137    -0.4389883
H          -0.4993208    -1.8020858     0.0050574
H           0.4511704    -3.2131412    -0.4933369
C           1.7169418    -0.1076115    -0.1949062
H           1.0019627     0.5264558     0.3558037
O           1.2825825    -0.1945944    -1.5577868
C           0.6533142    -1.4579636    -1.8077211
H           1.3050383    -2.0666997    -2.4518650
H          -0.2853392    -1.2805395    -2.3450031
C           5.6590325     1.6361665     0.1582676
H           6.6511251     2.0693964     0.2546028
C           5.1902301     1.2216994    -1.0888704
H           5.8169729     1.3341591    -1.9700878
C           3.9147210     0.6671811    -1.2152977
H           3.5380465     0.3551835    -2.1832835
C           3.0934634     0.5194115    -0.0935132
C           3.5650641     0.9502334     1.1537942
H           2.9278062     0.8584527     2.0315102
C           4.8401993     1.4995928     1.2818189
H           5.1919885     1.8273091     2.2567852
23
355_C10H12O_0-6-18-16 (120,) energy =    -463.5038681
C           1.5011674    -1.4841682     0.4022268
H           1.2212377    -1.4078806     1.4569416
H           2.4385346    -2.0491546     0.3413398
C           0.4235233    -2.1334314    -0.4754687
H          -0.5740933    -1.7814996    -0.1870027
H           0.4264009    -3.2270142    -0.4300198
C           1.6789444    -0.0989517    -0.2620560
H           0.9665269     0.6103997     0.1895758
O           1.2981878    -0.2691456    -1.6353343
C           0.7996771    -1.5920784    -1.8569171
H           1.5784705    -2.2140817    -2.3250868
H          -0.0463445    -1.5253254    -2.5492132
C           5.6499467     1.5769906     0.1451750
H           6.6455038     1.9993507     0.2533798
C           5.1253536     1.3265686    -1.1227889
H           5.7118677     1.5558485    -2.0090623
C           3.8450201     0.7857737    -1.2636594
H           3.4281859     0.5945156    -2.2462371
C           3.0763192     0.4824069    -0.1362281
C           3.6052535     0.7472788     1.1350385
H           3.0129042     0.5324630     2.0223806
C           4.8832013     1.2863639     1.2763871
H           5.2797630     1.4821454     2.2694650
23
355_C10H12O_0-6-18-16 (135,) energy =    -463.5033316
C           1.3416001    -1.3314905     0.4339538
H           0.8790674    -1.1496075     1.4084009
H           2.2725561    -1.8841697     0.6026189
C           0.4312139    -2.1014094    -0.5347509
H          -0.6111839    -1.7788083    -0.4300993
H           0.4712487    -3.1861521    -0.3935178
C           1.6366104    -0.0154979    -0.3335302
H           0.9494075     0.7725571     0.0097487
O           1.3020282    -0.2660055    -1.7090975
C           0.9862251    -1.6474166    -1.8848935
H           1.8880378    -2.2216324    -2.1525692
H           0.2719776    -1.7225222    -2.7107435
C           5.6560951     1.5390985     0.1222843
H           6.6602263     1.9380630     0.2397806
C           5.0712229     1.4639098    -1.1423230
H           5.6200559     1.8061138    -2.0162223
C           3.7804111     0.9533856    -1.2940178
H           3.3208018     0.8915225    -2.2744264
C           3.0605576     0.4997083    -0.1836973
C           3.6521848     0.5854065     1.0844054
H           3.1037119     0.2488216     1.9615228
C           4.9399896     1.0992147     1.2375503
H           5.3846061     1.1540708     2.2280754
23
355_C10H12O_0-6-18-16 (150,) energy =    -463.5025123
C           1.2645521    -1.2438608     0.4621418
H           0.7469253    -0.9551666     1.3815396
H           2.1575577    -1.8131571     0.7434361
C           0.3897019    -2.0728887    -0.4916367
H          -0.6446763    -1.7101617    -0.4878309
H           0.3805199    -3.1400077    -0.2478506
C           1.6591005    -0.0199988    -0.4010557
H           0.9781943     0.8161629    -0.1801395
O           1.4020996    -0.3863859    -1.7698802
C           1.0474987    -1.7670017    -1.8376414
H           1.9423285    -2.3925369    -1.9893360
H           0.3852631    -1.8984785    -2.6991405
C           5.6608277     1.5612633     0.1242030
H           6.6576152     1.9741141     0.2555314
C           5.0301092     1.6234505    -1.1201553
H           5.5361715     2.0866757    -1.9635066
C           3.7501362     1.0952276    -1.2879739
H           3.2608011     1.1338464    -2.2556004
C           3.0846512     0.4817012    -0.2185159
C           3.7208785     0.4327970     1.0284641
H           3.2182673    -0.0213491     1.8787187
C           5.0000199     0.9662813     1.1991834
H           5.4796871     0.9135258     2.1733066
23
355_C10H12O_0-6-18-16 (165,) energy =    -463.5013274
C           1.3367615    -1.2456809     0.5111142
H           0.9287575    -0.7979067     1.4223875
H           2.1525948    -1.9223776     0.7910781
C           0.2780830    -1.9848036    -0.3232447
H          -0.6847480    -1.4651851    -0.2612671
H           0.1178498    -3.0156515     0.0064334
C           1.8484554    -0.2094921    -0.4954876
H           1.0963416     0.5988584    -0.5710108
O           1.8876465    -0.9168440    -1.7428670
C           0.8478709    -1.9021833    -1.7584384
H           1.2938908    -2.8490753    -2.0858204
H           0.0751627    -1.6221694    -2.4878238
C           5.6552449     1.7260555     0.1982403
H           6.6054667     2.2261889     0.3661604
C           5.0535930     1.7633306    -1.0625282
H           5.5358979     2.2924525    -1.8804945
C           3.8334092     1.1253602    -1.2759789
H           3.3698884     1.1464540    -2.2577037
C           3.1986733     0.4275068    -0.2380430
C           3.8066023     0.3994380     1.0215070
H           3.3294746    -0.1252974     1.8443029
C           5.0271805     1.0441564     1.2393947
H           5.4854773     1.0096711     2.2244702
23
355_C10H12O_0-6-18-16 (180,) energy =    -463.5005489
C           1.2447169    -1.1429544     0.5233423
H           0.7862470    -0.5938637     1.3515649
H           2.0091432    -1.8143281     0.9309297
C           0.2320094    -1.9369824    -0.3173449
H          -0.7100896    -1.3831333    -0.3993831
H           0.0010939    -2.9192385     0.1057239
C           1.8646602    -0.2302178    -0.5379585
H           1.1385256     0.5712635    -0.7696973
O           1.9969573    -1.0761357    -1.6927778
C           0.9286378    -2.0310633    -1.6950987
H           1.3680185    -3.0199278    -1.8739342
H           0.2330684    -1.8164027    -2.5184475
C           5.6555875     1.7244950     0.1920649
H           6.6039087     2.2270545     0.3633639
C           4.9773615     1.8971496    -1.0177776
H           5.3968093     2.5341106    -1.7922825
C           3.7588407     1.2573958    -1.2317751
H           3.2336479     1.3887492    -2.1741635
C           3.2013369     0.4232709    -0.2512789
C           3.8862012     0.2610692     0.9568494
H           3.4706280    -0.3667868     1.7392349
C           5.1053111     0.9079480     1.1786576
H           5.6223300     0.7710420     2.1249618
