22
286_C7H11N3O_1-0-11-12 (-165,) energy =    -512.8498718
C           2.1254931    -0.7678831    -0.9558064
N           1.2081980    -1.3807554    -0.1431611
H           1.2450016    -1.1644700     0.8488669
C           0.0388894    -2.0386418    -0.6917366
H          -0.2565708    -2.8709493    -0.0447600
H           0.2908877    -2.4192436    -1.6828302
H          -0.8162413    -1.3555845    -0.7966029
C           3.5382118    -0.0338463     1.1148270
N           2.9013746    -0.8132420     2.1216834
H           3.2250999    -0.5422449     3.0460884
H           3.0923051    -1.8073149     2.0049502
C           3.1962563    -0.0497974    -0.2415819
N           4.0213877     0.8690703    -0.8815419
C           4.0416007     1.1870492    -2.3053863
H           4.7891447     1.9693692    -2.4599036
H           3.0639284     1.5410037    -2.6372067
H           4.2956978     0.3052863    -2.8955128
C           4.8385995     1.4476979     0.0412451
H           5.5608305     2.1942244    -0.2586552
C           4.5753148     0.9106491     1.2895908
H           5.0757716     1.1639112     2.2151609
O           2.0525727    -0.8106614    -2.1887253
22
286_C7H11N3O_1-0-11-12 (-150,) energy =    -512.8482251
C           2.0446594    -0.8344588    -0.9828920
N           1.0078495    -1.1992112    -0.1664789
H           1.0851181    -0.9777432     0.8212053
C          -0.1378814    -1.9395557    -0.6534930
H          -0.2541270    -2.8935162    -0.1229265
H           0.0232979    -2.1364908    -1.7144031
H          -1.0644495    -1.3631046    -0.5373513
C           3.4797660    -0.0743606     1.0598430
N           2.8522227    -0.8398765     2.0816136
H           3.2279728    -0.6019187     2.9951019
H           2.9823108    -1.8399585     1.9416028
C           3.1364246    -0.1189300    -0.2937182
N           3.9197008     0.8269680    -0.9463940
C           3.9182798     1.1197066    -2.3748140
H           4.6223953     1.9370523    -2.5493834
H           2.9220401     1.4189641    -2.7073507
H           4.2136421     0.2409184    -2.9503867
C           4.7288123     1.4358982    -0.0360630
H           5.4280739     2.1990763    -0.3482047
C           4.4927735     0.8996600     1.2184018
H           4.9922541     1.1761246     2.1378564
O           2.0420782    -1.0340983    -2.2021174
22
286_C7H11N3O_1-0-11-12 (-135,) energy =    -512.8449134
C           2.0831386    -0.9538521    -1.0008662
N           0.9567883    -1.1168473    -0.2365486
H           1.0122829    -0.8407239     0.7376754
C          -0.1772562    -1.9000472    -0.6871984
H          -0.2821403    -2.8349538    -0.1198890
H          -0.0138719    -2.1387970    -1.7390909
H          -1.1076204    -1.3284770    -0.5898718
C           3.4972804    -0.1462123     1.0321007
N           2.8970433    -0.9270188     2.0540139
H           3.3463553    -0.7671653     2.9507166
H           2.9396345    -1.9228492     1.8518409
C           3.1691585    -0.2139700    -0.3223481
N           3.8778399     0.7943150    -0.9680251
C           3.8608755     1.0720730    -2.3978220
H           4.5048654     1.9351821    -2.5826315
H           2.8466895     1.2999274    -2.7356710
H           4.2186613     0.2098949    -2.9640060
C           4.6474069     1.4487776    -0.0548884
H           5.3007232     2.2531672    -0.3631828
C           4.4469544     0.8905289     1.1962138
H           4.9255193     1.1957003     2.1176795
O           2.1481623    -1.3030171    -2.1828417
22
286_C7H11N3O_1-0-11-12 (-120,) energy =    -512.8402621
C           2.2600047    -1.0843447    -0.9491231
N           1.0325601    -1.0543077    -0.3362197
H           1.0053671    -0.6856909     0.6070772
C          -0.0735109    -1.8786215    -0.7898781
H          -0.2036931    -2.7774777    -0.1711755
H           0.1428903    -2.1846357    -1.8142515
H          -1.0061798    -1.3047363    -0.7725892
C           3.5727946    -0.2052951     1.1176326
N           2.9931367    -1.0250401     2.1176039
H           3.4654469    -0.9128371     3.0093770
H           3.0132112    -2.0101926     1.8690906
C           3.2977936    -0.2879320    -0.2456131
N           3.9496366     0.7744740    -0.8635778
C           3.8913808     1.0899129    -2.2833566
H           4.7238001     1.7533956    -2.5294918
H           2.9502341     1.5918976    -2.5379228
H           3.9624236     0.1701282    -2.8648344
C           4.6458388     1.4741598     0.0754761
H           5.2497474     2.3246235    -0.2092082
C           4.4472296     0.8927968     1.3156995
H           4.8836359     1.2165799     2.2516192
O           2.4450894    -1.6187710    -2.0444540
22
286_C7H11N3O_1-0-11-12 (-105,) energy =    -512.8353518
C           2.3053080    -1.1837214    -0.8632349
N           1.0200544    -0.9659334    -0.4386566
H           0.9080028    -0.4150597     0.4023212
C          -0.0940326    -1.7806502    -0.8918139
H          -0.3565204    -2.5635752    -0.1673181
H           0.2049191    -2.2544524    -1.8277733
H          -0.9747068    -1.1536932    -1.0658412
C           3.6372102    -0.2325769     1.1703226
N           3.1489761    -1.0831498     2.1903238
H           3.7049759    -1.0062048     3.0361384
H           3.1378046    -2.0583732     1.9060317
C           3.3119631    -0.3184967    -0.1782511
N           3.8930293     0.7693808    -0.8201243
C           3.7645929     1.0678647    -2.2365601
H           4.5509570     1.7697920    -2.5235448
H           2.7895422     1.5172960    -2.4620230
H           3.8685480     0.1478906    -2.8158104
C           4.5982479     1.4977848     0.0934326
H           5.1541372     2.3730347    -0.2129128
C           4.4720294     0.9054953     1.3362392
H           4.9310363     1.2442981     2.2559298
O           2.5787516    -1.9342117    -1.7992808
22
286_C7H11N3O_1-0-11-12 (-90,) energy =    -512.8326453
C           2.2442788    -1.3186896    -0.6655090
N           0.9248991    -0.9631620    -0.5752057
H           0.7048568    -0.1744591     0.0169483
C          -0.1525263    -1.8097812    -1.0570253
H          -0.6604641    -2.3303875    -0.2347019
H           0.2878949    -2.5530522    -1.7230147
H          -0.8907221    -1.2170860    -1.6079235
C           3.6936831    -0.3356070     1.2679114
N           3.3353077    -1.2230036     2.3057798
H           4.0446022    -1.2525742     3.0310448
H           3.1909468    -2.1686651     1.9624280
C           3.1781955    -0.3397356    -0.0191465
N           3.7333366     0.7334902    -0.7070348
C           3.5692244     0.9844871    -2.1264049
H           3.9957249     1.9617337    -2.3638089
H           2.5068260     0.9929366    -2.3909065
H           4.0715789     0.2174629    -2.7270795
C           4.5819738     1.4020263     0.1323703
H           5.1279411     2.2685982    -0.2136776
C           4.5776038     0.7771273     1.3633161
H           5.1318061     1.0872361     2.2396156
O           2.6222755    -2.3403341    -1.2332899
22
286_C7H11N3O_1-0-11-12 (-75,) energy =    -512.8345413
C           2.2029510    -1.3240936    -0.4748686
N           0.9244248    -0.9049865    -0.7389587
H           0.6688848     0.0170483    -0.4149947
C          -0.1158217    -1.8033189    -1.2070828
H          -0.8087452    -2.0763611    -0.4005536
H           0.3709643    -2.7105781    -1.5671929
H          -0.6865191    -1.3452650    -2.0223207
C           3.7568569    -0.3292476     1.3138244
N           3.4815257    -1.2460390     2.3427940
H           4.2682576    -1.3558236     2.9736488
H           3.2274359    -2.1558602     1.9666157
C           3.1018823    -0.2756249     0.0883490
N           3.6651467     0.7680126    -0.6473837
C           3.4161291     1.0426425    -2.0495980
H           3.8725286     2.0012790    -2.3067780
H           2.3417540     1.1016493    -2.2482215
H           3.8443733     0.2633874    -2.6921342
C           4.6109556     1.3850300     0.1222530
H           5.1601971     2.2347897    -0.2590762
C           4.6837550     0.7486885     1.3461459
H           5.3252127     1.0249007     2.1726748
O           2.5544889    -2.4965117    -0.6042990
22
286_C7H11N3O_1-0-11-12 (-60,) energy =    -512.8382911
C           2.2007400    -1.4125898    -0.3287094
N           1.0369608    -1.0065680    -0.9340386
H           0.7708405    -0.0386079    -0.8246796
C           0.0256133    -1.9621929    -1.3513521
H          -0.6095598    -2.2844236    -0.5150664
H           0.5234090    -2.8458234    -1.7543057
H          -0.6043815    -1.5146540    -2.1254952
C           3.7774762    -0.3761760     1.3827420
N           3.5287302    -1.2789276     2.4204767
H           4.3297462    -1.4086448     3.0277928
H           3.2099196    -2.1735856     2.0580773
C           3.0895952    -0.3385743     0.1679468
N           3.6748924     0.6700772    -0.6091880
C           3.2937755     1.0520574    -1.9548072
H           4.0824400     1.6803128    -2.3755185
H           2.3527684     1.6177489    -1.9747823
H           3.1780611     0.1667995    -2.5863782
C           4.6316654     1.2948695     0.1360327
H           5.1858169     2.1292759    -0.2717258
C           4.7172439     0.6883619     1.3747490
H           5.3960627     0.9586894     2.1726734
O           2.4325208    -2.6063129    -0.1168477
22
286_C7H11N3O_1-0-11-12 (-45,) energy =    -512.8419948
C           2.1615883    -1.4122931    -0.2569321
N           1.0968880    -1.0195745    -1.0381909
H           0.8609074    -0.0376414    -1.0358258
C           0.0528766    -1.9640740    -1.3988723
H          -0.6610088    -2.1300768    -0.5803288
H           0.5161466    -2.9223142    -1.6383733
H          -0.4877316    -1.5929981    -2.2745219
C           3.8158084    -0.4065694     1.3864893
N           3.6049851    -1.3158703     2.4198733
H           4.4226171    -1.4633454     2.9994007
H           3.2321405    -2.1932719     2.0671266
C           3.0895235    -0.3637833     0.1902417
N           3.6306385     0.6755975    -0.5848985
C           3.2372475     1.0656719    -1.9250618
H           4.0265175     1.6893169    -2.3515299
H           2.3026799     1.6434228    -1.9328700
H           3.1047973     0.1844388    -2.5578234
C           4.6069270     1.2928285     0.1393667
H           5.1416137     2.1373501    -0.2738033
C           4.7433041     0.6676913     1.3637611
H           5.4436815     0.9354796     2.1435333
O           2.2749275    -2.5846399     0.1205881
22
286_C7H11N3O_1-0-11-12 (-30,) energy =    -512.8446071
C           2.1082608    -1.3954273    -0.2035018
N           1.1432431    -1.0408205    -1.1263529
H           0.9423146    -0.0557819    -1.2219977
C           0.0592874    -1.9636569    -1.4264924
H          -0.6652800    -2.0435735    -0.6045001
H           0.4772692    -2.9564389    -1.6000624
H          -0.4575393    -1.6263591    -2.3294537
C           3.8403483    -0.4382642     1.3779154
N           3.6502208    -1.3493622     2.4071223
H           4.4760856    -1.5203884     2.9670445
H           3.2136566    -2.2042732     2.0730982
C           3.0905199    -0.3875633     0.1933624
N           3.5934698     0.6834481    -0.5690020
C           3.1988898     1.0843144    -1.9058081
H           3.9756451     1.7335457    -2.3165757
H           2.2532164     1.6445500    -1.9102838
H           3.0900470     0.2111786    -2.5539108
C           4.5876947     1.2877227     0.1415573
H           5.1112610     2.1398188    -0.2705267
C           4.7630630     0.6399223     1.3482123
H           5.4802748     0.8997475     2.1151094
O           2.1038243    -2.5255501     0.3046641
22
286_C7H11N3O_1-0-11-12 (-15,) energy =    -512.8457079
C           2.0708067    -1.3625166    -0.1499321
N           1.1989282    -1.0747644    -1.1871726
H           1.0335581    -0.0975811    -1.3811621
C           0.0782118    -1.9708500    -1.4358964
H          -0.6897133    -1.9179790    -0.6518281
H           0.4473027    -2.9967006    -1.4720814
H          -0.3727904    -1.7151710    -2.3989943
C           3.8761155    -0.4537643     1.3700314
N           3.7065808    -1.3654122     2.3965202
H           4.5395374    -1.5584254     2.9373891
H           3.2067560    -2.1957021     2.0907707
C           3.1068476    -0.3966893     0.1951879
N           3.5696321     0.7089164    -0.5474315
C           3.1722937     1.1213650    -1.8800887
H           3.9257022     1.8102926    -2.2687283
H           2.2068304     1.6473092    -1.8813639
H           3.1048549     0.2597590    -2.5493646
C           4.5807947     1.3007594     0.1497886
H           5.0897175     2.1641833    -0.2572545
C           4.7941877     0.6286038     1.3354958
H           5.5248460     0.8815782     2.0917387
O           1.9686611    -2.4354299     0.4647079
22
286_C7H11N3O_1-0-11-12 (0,) energy =    -512.8453265
C           2.0948875    -0.7734033    -0.0740767
N           1.7396465    -1.0147155    -1.3913334
H           2.0823547    -0.3686348    -2.0865943
C           0.4436384    -1.6166084    -1.6719326
H           0.4175832    -1.9244391    -2.7212221
H          -0.3953357    -0.9344291    -1.4756627
H           0.3162373    -2.4934041    -1.0357259
C           3.6671822     0.4099521     1.5047639
N           3.0245305     0.0693975     2.6772867
H           2.1360727    -0.3971716     2.5127266
H           3.0122363     0.7830913     3.3940502
C           3.3213520    -0.0451332     0.2185245
N           4.2725281     0.4920511    -0.6754201
C           4.4542730     0.1809672    -2.0811323
H           5.4652882     0.4717344    -2.3756286
H           3.7517758     0.7308940    -2.7240805
H           4.3348922    -0.8912969    -2.2588070
C           5.1594997     1.2409999     0.0413591
H           5.9965516     1.7140306    -0.4546534
C           4.8208764     1.2291534     1.3773588
H           5.3517391     1.7272415     2.1771449
O           1.3814311    -1.2112507     0.8440039
22
286_C7H11N3O_1-0-11-12 (15,) energy =    -512.8457114
C           2.0324627    -0.4249204     0.0023598
N           1.8204929    -0.9564868    -1.2588070
H           2.6343462    -1.2941369    -1.7520978
C           0.5753252    -1.6631803    -1.5252732
H           0.5004162    -1.8534358    -2.5996785
H          -0.2622803    -1.0384237    -1.2115294
H           0.5042209    -2.6160909    -0.9831653
C           3.7477700     0.4929132     1.6172206
N           3.0369081     0.2396372     2.7766217
H           2.0475138     0.0964262     2.5941643
H           3.2302391     0.8724316     3.5420105
C           3.3308290     0.1581174     0.3175897
N           4.3689141     0.5360157    -0.5583369
C           4.3745993     0.4967349    -2.0083064
H           5.1850846     1.1339848    -2.3693197
H           3.4289036     0.8693076    -2.4103513
H           4.5494666    -0.5173676    -2.3953966
C           5.3779446     1.0783058     0.1810644
H           6.2689831     1.4515681    -0.3056597
C           5.0449652     1.0615403     1.5198334
H           5.6586535     1.4171052     2.3363781
O           1.1191511    -0.4413991     0.8420667
22
286_C7H11N3O_1-0-11-12 (30,) energy =    -512.8446072
C           1.9863309    -0.3599070    -0.0336649
N           1.8294596    -1.0317536    -1.2312692
H           2.6584516    -1.4440430    -1.6349253
C           0.5640271    -1.6854839    -1.5283733
H           0.5382442    -1.9490403    -2.5895646
H          -0.2510750    -0.9943139    -1.3087762
H           0.4068009    -2.5917163    -0.9274217
C           3.7325261     0.4558389     1.6099930
N           3.0138313     0.1857911     2.7657153
H           2.0169879     0.1188906     2.5791839
H           3.2303347     0.7988978     3.5415971
C           3.3155608     0.1449176     0.3071162
N           4.3339059     0.5722356    -0.5656700
C           4.3304374     0.5422729    -2.0157836
H           5.1079282     1.2186210    -2.3786207
H           3.3647702     0.8734404    -2.4055214
H           4.5429642    -0.4608103    -2.4118311
C           5.3512905     1.0890828     0.1800280
H           6.2379756     1.4776773    -0.3024890
C           5.0298729     1.0249331     1.5212744
H           5.6473099     1.3608063     2.3434456
O           1.0305598    -0.2351588     0.7448284
22
286_C7H11N3O_1-0-11-12 (45,) energy =    -512.8419948
C           1.9711289    -0.2948605    -0.0647045
N           1.8420622    -1.1120094    -1.1664220
H           2.6750415    -1.5807251    -1.4925348
C           0.5582327    -1.7034601    -1.5044648
H           0.5669153    -2.0176914    -2.5522257
H          -0.2217502    -0.9549253    -1.3573888
H           0.3178469    -2.5691823    -0.8720909
C           3.7480265     0.4208057     1.6021737
N           3.0269525     0.1275735     2.7568435
H           2.0267392     0.1278373     2.5755995
H           3.2646272     0.7222186     3.5417226
C           3.3290581     0.1358125     0.2970002
N           4.3260157     0.6127015    -0.5704669
C           4.3108803     0.5884686    -2.0203448
H           5.0685322     1.2847328    -2.3876649
H           3.3340506     0.8996418    -2.3991394
H           4.5385440    -0.4084714    -2.4222601
C           5.3512249     1.1085743     0.1790350
H           6.2324113     1.5123029    -0.3008843
C           5.0427963     0.9968129     1.5210431
H           5.6641482     1.3131943     2.3481584
O           0.9915798    -0.0130190     0.6358752
22
286_C7H11N3O_1-0-11-12 (60,) energy =    -512.8383057
C           1.9737128    -0.1204605     0.0323644
N           1.8139774    -1.0962195    -0.9210561
H           2.6316831    -1.6301618    -1.1780099
C           0.5057064    -1.6118988    -1.2828806
H           0.4911959    -1.8945529    -2.3403470
H          -0.2291860    -0.8257793    -1.1050139
H           0.2250932    -2.4847400    -0.6778162
C           3.8247158     0.4671088     1.6814049
N           3.1212362     0.1629928     2.8509639
H           2.1183250     0.2412168     2.7036167
H           3.4069808     0.7337015     3.6384933
C           3.3694233     0.2242072     0.3838861
N           4.3417665     0.7177212    -0.4961685
C           4.2833108     0.6994479    -1.9445916
H           5.0532638     1.3701714    -2.3331546
H           3.3075086     1.0487427    -2.2936825
H           4.4598048    -0.3039254    -2.3546085
C           5.4026532     1.1679445     0.2341872
H           6.2793500     1.5638889    -0.2599519
C           5.1289413     1.0193932     1.5804769
H           5.7780343     1.3004352     2.3991690
O           1.0099658     0.3591587     0.6364249
22
286_C7H11N3O_1-0-11-12 (75,) energy =    -512.8345294
C           2.0165936    -0.0883652    -0.1425342
N           1.8837351    -1.2626833    -0.8375487
H           2.6961634    -1.8609732    -0.8857995
C           0.5967018    -1.7827116    -1.2631501
H           0.6451414    -2.1407687    -2.2973965
H          -0.1262063    -0.9690105    -1.1921504
H           0.2592503    -2.6057075    -0.6197489
C           3.8386927     0.4262122     1.5945204
N           3.1075625     0.0942374     2.7476931
H           2.1120698     0.2476651     2.6087699
H           3.4151992     0.6221082     3.5574217
C           3.4086327     0.2321261     0.2862160
N           4.4145961     0.6959579    -0.5625975
C           4.3059396     0.8406556    -2.0014446
H           5.2788628     1.1389195    -2.3983507
H           3.5664385     1.6049481    -2.2695341
H           4.0113406    -0.1038543    -2.4698562
C           5.4705593     1.1138290     0.1974336
H           6.3671161     1.4962522    -0.2706492
C           5.1604060     0.9468823     1.5331488
H           5.8057782     1.1727936     2.3717839
O           1.0497060     0.5999789     0.1837498
22
286_C7H11N3O_1-0-11-12 (90,) energy =    -512.8326454
C           1.9265015     0.0190102    -0.4068369
N           1.7971706    -1.2998998    -0.7522828
H           2.5510718    -1.9171809    -0.4843993
C           0.5456404    -1.8715611    -1.2178085
H           0.7166126    -2.5186010    -2.0849283
H          -0.1055631    -1.0444392    -1.5037394
H           0.0485806    -2.4568136    -0.4332092
C           3.7119042     0.4090699     1.4550997
N           2.9699689    -0.0027902     2.5835460
H           1.9880921     0.2471434     2.5024686
H           3.3331640     0.4088663     3.4372072
C           3.2786413     0.3690624     0.1386582
N           4.3273284     0.7909841    -0.6708708
C           4.2299745     1.0302262    -2.0983565
H           5.2282682     1.2375609    -2.4901786
H           3.5751660     1.8822067    -2.3144905
H           3.8306668     0.1467512    -2.6073434
C           5.4021082     1.0890922     0.1214618
H           6.3244443     1.4465577    -0.3147505
C           5.0636691     0.8574209     1.4396023
H           5.7113436     0.9825199     2.2975357
O           1.0197602     0.8363541    -0.5437570
22
286_C7H11N3O_1-0-11-12 (105,) energy =    -512.8353521
C           2.0182745     0.1130175    -0.6275660
N           1.8341854    -1.2454825    -0.6118084
H           2.4579393    -1.7798448    -0.0213738
C           0.6056218    -1.8679941    -1.0736408
H           0.8311835    -2.7622683    -1.6642440
H           0.0862572    -1.1416665    -1.7002224
H          -0.0515104    -2.1526657    -0.2408243
C           3.7469457     0.3689321     1.3104492
N           2.9849768    -0.1621155     2.3778327
H           2.0345724     0.1964292     2.3886864
H           3.4109779     0.0417905     3.2763680
C           3.2992324     0.5458585     0.0064985
N           4.3834964     0.9661020    -0.7559169
C           4.3470618     1.2281656    -2.1848841
H           5.2054122     1.8481094    -2.4541571
H           3.4244159     1.7555851    -2.4358138
H           4.3885059     0.2963425    -2.7625717
C           5.4741630     1.0893604     0.0551079
H           6.4172163     1.4393380    -0.3412774
C           5.1193154     0.7365229     1.3437986
H           5.7662860     0.7484336     2.2113063
O           1.2560668     0.8815737    -1.2131753
22
286_C7H11N3O_1-0-11-12 (120,) energy =    -512.8402632
C           2.0814256     0.0589250    -0.7297582
N           1.7845919    -1.2557434    -0.4718211
H           2.2921594    -1.6946266     0.2871915
C           0.5496295    -1.8695128    -0.9266014
H           0.7455975    -2.8746008    -1.3152584
H           0.1476059    -1.2458209    -1.7260972
H          -0.1975873    -1.9437612    -0.1242811
C           3.7457533     0.3128549     1.2530989
N           2.9771387    -0.3030976     2.2717105
H           2.0355131     0.0749648     2.3273068
H           3.4153851    -0.1990579     3.1816797
C           3.3146083     0.5356391    -0.0527872
N           4.4034230     1.0214994    -0.7698620
C           4.4034059     1.3455650    -2.1889289
H           5.2536228     1.9985531    -2.3999537
H           3.4719429     1.8503359    -2.4470955
H           4.4911988     0.4397888    -2.8009244
C           5.4697782     1.1406374     0.0696603
H           6.4100059     1.5359392    -0.2891810
C           5.1006679     0.7214527     1.3359993
H           5.7296209     0.7147688     2.2166848
O           1.4519746     0.7369068    -1.5445264
22
286_C7H11N3O_1-0-11-12 (135,) energy =    -512.8449133
C           2.0636156    -0.0702068    -0.9270493
N           1.6443095    -1.2956202    -0.4773817
H           2.0760508    -1.6523732     0.3681933
C           0.4463226    -1.9362849    -0.9842023
H           0.6624592    -2.9571527    -1.3206993
H           0.0943484    -1.3489551    -1.8335443
H          -0.3465335    -1.9808238    -0.2252398
C           3.6446816     0.2781685     1.1138958
N           2.8836569    -0.3891039     2.1092100
H           1.9524030     0.0070231     2.2106632
H           3.3445075    -0.3476130     3.0133329
C           3.2404784     0.4644486    -0.2086277
N           4.3108098     1.0370849    -0.8882580
C           4.3193097     1.4380620    -2.2887952
H           5.3155917     1.8192450    -2.5251263
H           3.5692961     2.2090687    -2.4763798
H           4.0956641     0.5863168    -2.9358731
C           5.3362246     1.2337211    -0.0142498
H           6.2558737     1.6979444    -0.3423069
C           4.9605602     0.7838038     1.2402720
H           5.5651842     0.8100235     2.1374950
O           1.5687997     0.4889032    -1.9098046
22
286_C7H11N3O_1-0-11-12 (150,) energy =    -512.8482254
C           1.9101090    -0.3391623    -1.0002613
N           1.4247615    -1.4725291    -0.4050283
H           1.8600120    -1.7737212     0.4612398
C           0.2841083    -2.1946731    -0.9298753
H           0.5609549    -3.2121579    -1.2339039
H          -0.0763381    -1.6520866    -1.8051113
H          -0.5230921    -2.2616126    -0.1890038
C           3.4832270     0.1378903     1.0266497
N           2.7939075    -0.5951383     2.0323642
H           1.8766095    -0.1997308     2.2296330
H           3.3221494    -0.6042682     2.9002081
C           3.0530994     0.2740727    -0.2956427
N           4.0347181     0.9884675    -0.9741004
C           4.0069146     1.3860390    -2.3766952
H           4.9467494     1.8980263    -2.5978375
H           3.1631525     2.0492005    -2.5746006
H           3.9058386     0.5125660    -3.0242447
C           5.0386057     1.2947783    -0.1065907
H           5.8962520     1.8628722    -0.4390950
C           4.7310767     0.7925114     1.1464354
H           5.3335276     0.8875965     2.0404848
O           1.4688263     0.1009615    -2.0670109
22
286_C7H11N3O_1-0-11-12 (165,) energy =    -512.8498680
C           2.0059116    -0.2826802    -0.9694277
N           1.3236968    -1.2469449    -0.2739679
H           1.7478463    -1.5957437     0.5807895
C           0.2430112    -1.9901714    -0.8916365
H           0.6009386    -2.8712840    -1.4432466
H          -0.2694857    -1.3353698    -1.5984027
H          -0.4629536    -2.3215135    -0.1234995
C           3.5555903     0.1684748     1.0833754
N           2.8473500    -0.5631652     2.0773004
H           1.9517849    -0.1302907     2.2976904
H           3.3857157    -0.6192640     2.9372763
C           3.1522702     0.2996467    -0.2497645
N           4.1258977     1.0520916    -0.8988143
C           4.1278660     1.4636158    -2.2985207
H           5.0618076     1.9998868    -2.4853986
H           3.2761612     2.1110971    -2.5138225
H           4.0627788     0.5958094    -2.9567988
C           5.1065469     1.3686927    -0.0088740
H           5.9599308     1.9550777    -0.3199696
C           4.7875986     0.8455247     1.2323424
H           5.3714456     0.9427745     2.1383928
O           1.6835766     0.0619174    -2.1115465
22
286_C7H11N3O_1-0-11-12 (180,) energy =    -512.8499432
C           1.9580175    -0.7206515    -0.9134465
N           1.1817056    -1.5165112    -0.1241832
H           1.3560603    -1.4749343     0.8796566
C          -0.0053238    -2.1647143    -0.6432768
H          -0.1733592    -3.1072402    -0.1123422
H           0.1440573    -2.3681242    -1.7051501
H          -0.9039333    -1.5396440    -0.5386826
C           3.4519045    -0.0650127     1.1386054
N           2.7855822    -0.8368404     2.1504014
H           2.7132164    -0.3020362     3.0138720
H           3.3194130    -1.6772269     2.3727332
C           3.0714019    -0.0454895    -0.2065651
N           3.9517010     0.7974943    -0.8669655
C           3.9629581     1.1295741    -2.2893155
H           4.7870599     1.8276207    -2.4582283
H           3.0191346     1.5874901    -2.5872720
H           4.1052242     0.2331061    -2.8946383
C           4.8458706     1.3019911     0.0336425
H           5.6160932     1.9888283    -0.2888137
C           4.5705506     0.7892678     1.2868139
H           5.1115550     1.0017631     2.1997498
O           1.7618708    -0.5794704    -2.1259875
