20
337_C8H11N_0-4-15-16 (-165,) energy =    -366.2151846
C           1.1897154    -0.7433769    -0.1555430
H           1.1183327    -0.8349440     0.9343812
H           0.5001334    -1.4710415    -0.5888752
H           0.8476731     0.2669377    -0.4348965
N           2.5374053    -1.0351900    -0.6153437
C           2.6712721    -1.7527634    -1.8715038
H           1.7814762    -2.3666867    -2.0276276
H           3.5339374    -2.4279414    -1.8433107
H           2.7892686    -1.0865459    -2.7427272
C           5.7289660     1.4223413     0.6999824
H           6.5490606     2.0462380     1.0428224
C           4.4846774     1.4684387     1.3294770
H           4.3258182     2.1359884     2.1730913
C           3.4266133     0.6745241     0.8939748
H           2.4758487     0.7472039     1.4084824
C           3.5836469    -0.2125891    -0.1951422
C           4.8435548    -0.2386933    -0.8348211
H           5.0119826    -0.8847015    -1.6880781
C           5.8915137     0.5617321    -0.3856621
H           6.8469907     0.5116885    -0.9024898
20
337_C8H11N_0-4-15-16 (-150,) energy =    -366.2145697
C           1.1705458    -0.6594940    -0.2469539
H           1.0053007    -0.5884810     0.8322343
H           0.4753672    -1.4113412    -0.6285345
H           0.9146216     0.3135052    -0.6982612
N           2.5333979    -1.0837264    -0.5445086
C           2.6869324    -1.8380077    -1.7779233
H           1.8372435    -2.5170884    -1.8853075
H           3.5942419    -2.4487428    -1.7384337
H           2.7386749    -1.2042335    -2.6807867
C           5.7197231     1.4348627     0.6861150
H           6.5367307     2.0731671     1.0094043
C           4.5149539     1.4053483     1.3909022
H           4.3854311     2.0256848     2.2745400
C           3.4630816     0.5909554     0.9818975
H           2.5461620     0.5954116     1.5598068
C           3.5839935    -0.2396563    -0.1542863
C           4.7991908    -0.1855327    -0.8703561
H           4.9359220    -0.7794637    -1.7658990
C           5.8463796     0.6316026    -0.4458692
H           6.7684756     0.6436398    -1.0221306
20
337_C8H11N_0-4-15-16 (-135,) energy =    -366.2141397
C           1.1531526    -0.5654830    -0.3984674
H           1.0080176    -0.0481200     0.5501417
H           0.4481847    -1.4030204    -0.4329834
H           0.8956510     0.1354729    -1.2124168
N           2.5144377    -1.0787911    -0.5140505
C           2.6999664    -1.9049455    -1.6939740
H           1.8825818    -2.6312653    -1.7451583
H           3.6398699    -2.4595621    -1.6222541
H           2.7039217    -1.3331665    -2.6401464
C           5.7196851     1.4220411     0.7113710
H           6.5411883     2.0535983     1.0368514
C           4.5687630     1.2907704     1.4939258
H           4.4922505     1.8170004     2.4423074
C           3.5168385     0.4787336     1.0851435
H           2.6530819     0.3686895     1.7329533
C           3.5746003    -0.2287007    -0.1346359
C           4.7365305    -0.0856651    -0.9168304
H           4.8211554    -0.5952643    -1.8696685
C           5.7924940     0.7227986    -0.4907464
H           6.6751713     0.8101993    -1.1197206
20
337_C8H11N_0-4-15-16 (-120,) energy =    -366.2135804
C           1.1807955    -0.4732867    -0.5068233
H           1.0226573     0.1479847     0.3764225
H           0.4079990    -1.2500110    -0.5194311
H           1.0469874     0.1618573    -1.4012397
N           2.4999829    -1.1024280    -0.4633801
C           2.7103401    -1.9875287    -1.5975400
H           1.9004976    -2.7246633    -1.6224441
H           3.6563130    -2.5241076    -1.4827534
H           2.7190239    -1.4672354    -2.5735234
C           5.6955096     1.4344080     0.7080436
H           6.5112747     2.0790178     1.0227050
C           4.6016335     1.2115680     1.5506419
H           4.5660744     1.6787183     2.5317241
C           3.5620453     0.3771095     1.1551683
H           2.7364072     0.1825270     1.8337771
C           3.5779127    -0.2519875    -0.1050732
C           4.6755173    -0.0143863    -0.9490617
H           4.7170910    -0.4694229    -1.9326914
C           5.7250750     0.8113464    -0.5373107
H           6.5650988     0.9740433    -1.2082524
20
337_C8H11N_0-4-15-16 (-105,) energy =    -366.2122713
C           1.2140786    -0.3949064    -0.6302864
H           1.0304874     0.2914268     0.1999114
H           0.3885401    -1.1147636    -0.6699224
H           1.2086025     0.1903620    -1.5683131
N           2.4733319    -1.1108707    -0.4231888
C           2.7164208    -2.0713303    -1.4907979
H           1.9021514    -2.8047106    -1.4966970
H           3.6548504    -2.6016730    -1.3062262
H           2.7620586    -1.6193703    -2.4994419
C           5.6718747     1.4421527     0.7037738
H           6.4854668     2.0947257     1.0081417
C           4.6452070     1.1274983     1.5994490
H           4.6594755     1.5320120     2.6084109
C           3.6113843     0.2789156     1.2145341
H           2.8282178     0.0087297     1.9177402
C           3.5719697    -0.2667206    -0.0800393
C           4.5961919     0.0675124    -0.9787808
H           4.5852515    -0.3283840    -1.9893244
C           5.6429133     0.9037574    -0.5815057
H           6.4325093     1.1425230    -1.2898166
20
337_C8H11N_0-4-15-16 (-90,) energy =    -366.2107033
C           1.2406609    -0.3069024    -0.7500742
H           1.0296759     0.4407564     0.0196623
H           0.3786302    -0.9804005    -0.8217817
H           1.3508384     0.2172939    -1.7179703
N           2.4281566    -1.0777275    -0.3819199
C           2.7015090    -2.1289705    -1.3557489
H           1.8623063    -2.8342929    -1.3590759
H           3.6057286    -2.6724403    -1.0674379
H           2.8293463    -1.7639670    -2.3922009
C           5.6699597     1.4388446     0.7102686
H           6.4928230     2.0845741     1.0047754
C           4.7249397     1.0272161     1.6535313
H           4.8112534     1.3500966     2.6879402
C           3.6779951     0.1877394     1.2768718
H           2.9484344    -0.1557569     2.0050096
C           3.5518350    -0.2484036    -0.0496173
C           4.4932802     0.1834026    -0.9951076
H           4.4069262    -0.1323895    -2.0307716
C           5.5514352     1.0105851    -0.6122682
H           6.2795183     1.3285251    -1.3544975
20
337_C8H11N_0-4-15-16 (-75,) energy =    -366.2123453
C           2.5684745    -2.2425868    -0.8281816
H           2.9808089    -2.2622762    -1.8537506
H           1.6397216    -2.8245123    -0.8207161
H           3.2849174    -2.7326779    -0.1642299
N           2.2953023    -0.8835655    -0.3582595
C           1.3092530    -0.2228622    -1.2022480
H           0.3778068    -0.7992634    -1.1702293
H           1.6101225    -0.1385278    -2.2633520
H           1.1055588     0.7808999    -0.8189903
C           5.7456225     1.3496603     0.7038322
H           6.6223845     1.9208915     0.9960100
C           5.0533821     1.6681699    -0.4628999
H           5.3917737     2.4890259    -1.0904732
C           3.9256635     0.9357299    -0.8438200
H           3.4080414     1.1959375    -1.7615559
C           3.4665090    -0.1274504    -0.0522016
C           4.1562723    -0.4239347     1.1365690
H           3.7785827    -1.2187385     1.7741423
C           5.2901003     0.2952481     1.5017262
H           5.8075589     0.0480200     2.4252906
20
337_C8H11N_0-4-15-16 (-60,) energy =    -366.2137073
C           2.4973557    -2.2615951    -0.6899239
H           2.9353661    -2.4308314    -1.6902097
H           1.5322288    -2.7785149    -0.6467869
H           3.1583607    -2.7162864     0.0498782
N           2.3005591    -0.8420806    -0.4004613
C           1.3708102    -0.2260551    -1.3328406
H           0.4385111    -0.8007972    -1.3285970
H           1.7395467    -0.1940664    -2.3750304
H           1.1433536     0.7951858    -1.0145371
C           5.7535808     1.3617413     0.7115831
H           6.6310467     1.9261422     1.0140670
C           4.9975341     1.7623768    -0.3872538
H           5.2862028     2.6434238    -0.9552839
C           3.8702199     1.0375971    -0.7831995
H           3.3125608     1.3658133    -1.6535026
C           3.4677785    -0.1062476    -0.0735284
C           4.2279446    -0.4898850     1.0493503
H           3.9088591    -1.3447885     1.6386170
C           5.3581330     0.2265479     1.4266594
H           5.9239525    -0.0921376     2.2986237
20
337_C8H11N_0-4-15-16 (-45,) energy =    -366.2141652
C           2.4238755    -2.2789857    -0.5619490
H           2.9389427    -2.5932310    -1.4870185
H           1.4199974    -2.7164538    -0.5639219
H           2.9653104    -2.7000862     0.2854833
N           2.3125831    -0.8285655    -0.4481694
C           1.4301796    -0.2530227    -1.4479917
H           0.5083198    -0.8419163    -1.4824533
H           1.8617696    -0.2391534    -2.4655327
H           1.1644783     0.7716099    -1.1726011
C           5.7431007     1.3890542     0.7129127
H           6.6142635     1.9587954     1.0228806
C           4.9265383     1.8421923    -0.3201273
H           5.1602580     2.7727497    -0.8318039
C           3.8089804     1.1106007    -0.7269394
H           3.2122285     1.4863010    -1.5498241
C           3.4671711    -0.1005308    -0.0943588
C           4.2988532    -0.5446227     0.9562524
H           4.0542345    -1.4556682     1.4923159
C           5.4155548     0.1865602     1.3457021
H           6.0305064    -0.1840693     2.1622419
20
337_C8H11N_0-4-15-16 (-30,) energy =    -366.2146368
C           2.3640164    -2.2639017    -0.4077994
H           3.1564621    -2.6973476    -1.0402024
H           1.4023233    -2.6675362    -0.7337228
H           2.5235169    -2.6047716     0.6196401
N           2.3122057    -0.8083740    -0.4767030
C           1.4734876    -0.2700616    -1.5354626
H           0.5782545    -0.8902486    -1.6271585
H           1.9716700    -0.2351511    -2.5202756
H           1.1474285     0.7437798    -1.2830088
C           5.7501388     1.3887630     0.6898347
H           6.6236454     1.9545375     1.0002153
C           4.8662737     1.9027814    -0.2573455
H           5.0487199     2.8794630    -0.6992324
C           3.7455020     1.1799345    -0.6645283
H           3.0948100     1.6124517    -1.4148483
C           3.4654690    -0.0926968    -0.1220511
C           4.3717509    -0.6042441     0.8334339
H           4.2037274    -1.5777905     1.2791118
C           5.4886990     0.1268947     1.2268734
H           6.1616601    -0.3002447     1.9665346
20
337_C8H11N_0-4-15-16 (-15,) energy =    -366.2151937
C           2.3072024    -2.2343111    -0.3078098
H           3.1326842    -2.7793042    -0.7950688
H           1.3632268    -2.6326482    -0.6859775
H           2.3466070    -2.4511421     0.7659200
N           2.3486643    -0.8019315    -0.5507567
C           1.5370249    -0.2865703    -1.6400398
H           0.6866928    -0.9537704    -1.7972802
H           2.0896101    -0.2000503    -2.5907150
H           1.1353462     0.7023583    -1.3916771
C           5.7455610     1.3969444     0.7054541
H           6.6114203     1.9635487     1.0349790
C           4.8255300     1.9512661    -0.1845282
H           4.9716128     2.9614312    -0.5597370
C           3.7143847     1.2301171    -0.6155697
H           3.0305939     1.6970170    -1.3143139
C           3.4790551    -0.0853344    -0.1557093
C           4.4247049    -0.6407802     0.7359336
H           4.3004864    -1.6512607     1.1067008
C           5.5305079     0.0941572     1.1561397
H           6.2347510    -0.3669788     1.8445713
20
337_C8H11N_0-4-15-16 (0,) energy =    -366.2150123
C           2.2904545    -2.2293939    -0.2601646
H           3.1400331    -2.8715180    -0.5370540
H           1.3936365    -2.6415213    -0.7264482
H           2.1630757    -2.2949500     0.8304415
N           2.4736692    -0.8612353    -0.7031531
C           1.5424306    -0.2748412    -1.6468068
H           0.7726326    -1.0077624    -1.8952949
H           2.0366211     0.0256914    -2.5827812
H           1.0410819     0.6128061    -1.2333549
C           5.7445724     1.4041436     0.7262563
H           6.5844544     1.9862192     1.0937825
C           4.8319385     1.9564389    -0.1732788
H           4.9571811     2.9813061    -0.5147952
C           3.7517582     1.2181352    -0.6502057
H           3.0667620     1.6845332    -1.3485702
C           3.5472174    -0.1180113    -0.2344244
C           4.4788646    -0.6685953     0.6760566
H           4.3666138    -1.6891566     1.0229601
C           5.5526566     0.0858934     1.1418306
H           6.2488683    -0.3707006     1.8414553
20
337_C8H11N_0-4-15-16 (15,) energy =    -366.2151937
C           2.2567542    -2.2049783    -0.2390397
H           3.1089692    -2.8933313    -0.2760002
H           1.4354940    -2.6742731    -0.7849680
H           1.9537083    -2.0957795     0.8155233
N           2.5837614    -0.9379816    -0.8716831
C           1.5370185    -0.2859072    -1.6397921
H           0.8416545    -1.0430319    -2.0087971
H           1.9567476     0.2262994    -2.5130208
H           0.9647877     0.4534958    -1.0546060
C           5.7259638     1.4085205     0.7326772
H           6.5369803     2.0068980     1.1370842
C           4.8220941     1.9534332    -0.1794236
H           4.9225478     2.9901122    -0.4920824
C           3.7765569     1.1942626    -0.6999378
H           3.0930527     1.6615157    -1.3987102
C           3.6044224    -0.1578925    -0.3266150
C           4.5189294    -0.6951485     0.6076025
H           4.4225379    -1.7219860     0.9396384
C           5.5582792     0.0783029     1.1186506
H           6.2429264    -0.3714991     1.8338279
20
337_C8H11N_0-4-15-16 (30,) energy =    -366.2146368
C           2.1822861    -2.1580242    -0.1596535
H           2.9953446    -2.8777439    -0.0246939
H           1.3973583    -2.6639325    -0.7270534
H           1.7827442    -1.9009031     0.8353498
N           2.6313763    -0.9925806    -0.9120339
C           1.6083442    -0.3471969    -1.7189621
H           0.9697845    -1.1159825    -2.1613275
H           2.0687186     0.2111716    -2.5400608
H           0.9674229     0.3476444    -1.1482891
C           5.7119435     1.4111119     0.7432591
H           6.5093443     2.0208413     1.1577847
C           4.7584985     1.9657536    -0.1087493
H           4.8037380     3.0220806    -0.3628831
C           3.7288865     1.1902728    -0.6406779
H           3.0012871     1.6675333    -1.2858725
C           3.6256908    -0.1849820    -0.3401214
C           4.5954930    -0.7336538     0.5284534
H           4.5599889    -1.7841192     0.7928674
C           5.6149484     0.0538068     1.0552926
H           6.3436635    -0.4059163     1.7186583
20
337_C8H11N_0-4-15-16 (45,) energy =    -366.2141654
C           2.0678455    -2.0722187    -0.0760261
H           2.8413624    -2.6290584     0.4533431
H           1.5302130    -2.7795041    -0.7161993
H           1.3586060    -1.6765214     0.6724492
N           2.6487823    -1.0226204    -0.9066918
C           1.6727170    -0.3927563    -1.7785972
H           1.0847223    -1.1747794    -2.2690194
H           2.1788140     0.1851631    -2.5571668
H           0.9710959     0.2769643    -1.2484970
C           5.7292148     1.3975707     0.7332859
H           6.5268982     2.0096945     1.1439094
C           4.7057785     1.9707761    -0.0172642
H           4.6940462     3.0436999    -0.1935598
C           3.6746118     1.1892927    -0.5421827
H           2.8848633     1.6773252    -1.1012108
C           3.6470753    -0.2043128    -0.3393179
C           4.6943873    -0.7735870     0.4168518
H           4.7300723    -1.8470159     0.5707292
C           5.7103048     0.0159611     0.9440007
H           6.5031146    -0.4581416     1.5175332
20
337_C8H11N_0-4-15-16 (60,) energy =    -366.2137073
C           1.9923116    -1.9683944    -0.0003926
H           2.7067076    -2.4542831     0.6663376
H           1.4799504    -2.7475478    -0.5756691
H           1.2416805    -1.4488631     0.6222679
N           2.6798163    -1.0611263    -0.9178569
C           1.7587684    -0.4497983    -1.8618903
H           1.2045794    -1.2435235    -2.3741433
H           2.3150856     0.1174045    -2.6134078
H           1.0193097     0.2243809    -1.3908985
C           5.7219546     1.3802481     0.7560400
H           6.5135733     1.9942529     1.1759559
C           4.6459677     1.9665869     0.0942126
H           4.5887029     3.0481868    -0.0011530
C           3.6228107     1.1816295    -0.4442167
H           2.7899896     1.6695449    -0.9386702
C           3.6630547    -0.2188625    -0.3394361
C           4.7672606    -0.8021705     0.3135333
H           4.8407235    -1.8846248     0.3665133
C           5.7725669    -0.0135485     0.8616181
H           6.6133248    -0.4917868     1.3580532
20
337_C8H11N_0-4-15-16 (75,) energy =    -366.2123453
C           1.9079367    -1.8592372     0.0737710
H           2.5655992    -2.3154812     0.8178324
H           1.3552326    -2.6589662    -0.4324126
H           1.1802945    -1.2183181     0.6047635
N           2.6988383    -1.1166836    -0.9088289
C           1.8482909    -0.5341309    -1.9375914
H           1.3174443    -1.3425914    -2.4528033
H           2.4626189    -0.0043475    -2.6709714
H           1.0862832     0.1662706    -1.5472680
C           5.7079587     1.3716211     0.7565188
H           6.4929630     1.9958933     1.1741747
C           4.5682158     1.9497630     0.2009604
H           4.4569840     3.0312482     0.1876333
C           3.5549383     1.1512084    -0.3365433
H           2.6719720     1.6232320    -0.7554044
C           3.6730875    -0.2465948    -0.3335889
C           4.8386891    -0.8191138     0.2053351
H           4.9530941    -1.8991892     0.1705754
C           5.8360105    -0.0210461     0.7572040
H           6.7285511    -0.4858596     1.1685166
20
337_C8H11N_0-4-15-16 (90,) energy =    -366.2107032
C           1.6070612    -1.4169610     0.1343478
H           2.1912598    -2.3314245     0.3490535
H           0.6228355    -1.7200011    -0.2416303
H           1.4644378    -0.8757884     1.0738677
N           2.2536287    -0.5461176    -0.8475409
C           2.4085501    -1.2188817    -2.1327340
H           1.4143563    -1.4555406    -2.5293319
H           2.9771717    -2.1663971    -2.0821966
H           2.9105099    -0.5524039    -2.8398271
C           5.6857833     1.3700914     0.7590208
H           6.5537069     1.8724127     1.1775359
C           4.4147637     1.9354982     0.8897475
H           4.2893608     2.8824539     1.4086688
C           3.3041483     1.2972305     0.3404600
H           2.3134521     1.7364904     0.4177961
C           3.4425515     0.0799029    -0.3411882
C           4.7183729    -0.4914283    -0.4526474
H           4.8467572    -1.4405805    -0.9648304
C           5.8323815     0.1581033     0.0836089
H           6.8168196    -0.2916913    -0.0196556
20
337_C8H11N_0-4-15-16 (105,) energy =    -366.2122711
C           1.5118627    -1.2943633     0.1132177
H           2.0134416    -2.2231575     0.4420649
H           0.5379066    -1.5621159    -0.3120795
H           1.3410464    -0.6698998     0.9935482
N           2.2906576    -0.5584675    -0.8833285
C           2.4767838    -1.3452205    -2.0948911
H           1.4936498    -1.5662120    -2.5255765
H           2.9902682    -2.3108624    -1.9288496
H           3.0505968    -0.7694070    -2.8264181
C           5.6946655     1.3722912     0.7610108
H           6.5562861     1.8794212     1.1862794
C           4.4034859     1.8558813     0.9940603
H           4.2570884     2.7466510     1.5997886
C           3.3007582     1.2155761     0.4363024
H           2.2984418     1.6059594     0.5906649
C           3.4609965     0.0679684    -0.3589230
C           4.7582206    -0.4214613    -0.5737779
H           4.9108758    -1.3134039    -1.1731090
C           5.8640685     0.2362818    -0.0285530
H           6.8617761    -0.1533978    -0.2154412
20
337_C8H11N_0-4-15-16 (120,) energy =    -366.2135804
C           1.4144846    -1.1800239     0.0791431
H           1.8041793    -2.1263476     0.4961621
H           0.4536973    -1.3887089    -0.4045971
H           1.2345861    -0.4933469     0.9081403
N           2.3278494    -0.5829453    -0.8941275
C           2.5331052    -1.4521513    -2.0414554
H           1.5581048    -1.6906900    -2.4799633
H           3.0309446    -2.4080970    -1.7931694
H           3.1306800    -0.9370193    -2.7987696
C           5.7104605     1.3884418     0.7460563
H           6.5680480     1.9065237     1.1657421
C           4.4105213     1.7882794     1.0723955
H           4.2517814     2.6277500     1.7447859
C           3.3110425     1.1347306     0.5269765
H           2.3070900     1.4787530     0.7588843
C           3.4781545     0.0486961    -0.3543826
C           4.7872350    -0.3526708    -0.6685442
H           4.9562518    -1.1936376    -1.3322614
C           5.8873378     0.3205206    -0.1304461
H           6.8897907    -0.0076069    -0.3944587
20
337_C8H11N_0-4-15-16 (135,) energy =    -366.2141396
C           1.3231840    -1.0795729     0.0278171
H           1.6040941    -2.0047177     0.5619769
H           0.4060086    -1.2764812    -0.5375668
H           1.0968811    -0.3161023     0.7724440
N           2.3644902    -0.6267330    -0.8891355
C           2.5839459    -1.5545587    -1.9846734
H           1.6144020    -1.8220453    -2.4167656
H           3.0879457    -2.4901228    -1.6798980
H           3.1823612    -1.0795944    -2.7672824
C           5.7261354     1.4017712     0.7284055
H           6.5809446     1.9329936     1.1368122
C           4.4280663     1.7146819     1.1424150
H           4.2654559     2.5021742     1.8742552
C           3.3300945     1.0419531     0.6180567
H           2.3332015     1.3339757     0.9323423
C           3.4928002     0.0176890    -0.3390582
C           4.8046285    -0.2921078    -0.7456708
H           4.9821919    -1.0824138    -1.4658290
C           5.8995213     0.3985278    -0.2216744
H           6.8988753     0.1334442    -0.5583823
20
337_C8H11N_0-4-15-16 (150,) energy =    -366.2145699
C           1.2576290    -0.9230148    -0.0281760
H           1.5295595    -1.5422081     0.8427612
H           0.4874214    -1.4479075    -0.5986411
H           0.8081624     0.0040723     0.3399115
N           2.3888239    -0.6479476    -0.9059819
C           2.6219865    -1.6436287    -1.9392552
H           1.6583778    -1.9785046    -2.3317372
H           3.1764271    -2.5298228    -1.5831426
H           3.1815123    -1.2035842    -2.7705538
C           5.7387317     1.3767950     0.7340847
H           6.5926735     1.9036124     1.1496654
C           4.4545866     1.5868250     1.2401454
H           4.2995240     2.2846113     2.0595684
C           3.3559029     0.9140653     0.7136977
H           2.3758032     1.1095491     1.1331387
C           3.5031854     0.0039215    -0.3565855
C           4.8088016    -0.2153854    -0.8458907
H           4.9837055    -0.9247790    -1.6456463
C           5.8997037     0.4695866    -0.3116456
H           6.8897820     0.2760602    -0.7175563
20
337_C8H11N_0-4-15-16 (165,) energy =    -366.2151846
C           1.2155808    -0.8220201    -0.0905843
H           1.3727471    -1.3203105     0.8803928
H           0.4740723    -1.3931509    -0.6533870
H           0.7867000     0.1679013     0.1031811
N           2.4317874    -0.7170182    -0.8796889
C           2.6689249    -1.7462004    -1.8773827
H           1.7092494    -2.1492237    -2.2084380
H           3.2843889    -2.5815263    -1.5029334
H           3.1688347    -1.3263892    -2.7575544
C           5.7377676     1.3945557     0.7227091
H           6.5829771     1.9425046     1.1285673
C           4.4698824     1.5118084     1.2931049
H           4.3185860     2.1561568     2.1559295
C           3.3813969     0.8099018     0.7812259
H           2.4161680     0.9261620     1.2595192
C           3.5251530    -0.0368822    -0.3413010
C           4.8172398    -0.1600365    -0.9003678
H           4.9875910    -0.8124300    -1.7483719
C           5.8951071     0.5499359    -0.3761906
H           6.8735171     0.4306966    -0.8355854
20
337_C8H11N_0-4-15-16 (180,) energy =    -366.2150124
C           1.1805232    -0.7717985    -0.1280190
H           1.2094692    -1.0795535     0.9278536
H           0.4796050    -1.4271716    -0.6483086
H           0.7779399     0.2512690    -0.1673907
N           2.4825022    -0.8678401    -0.7584934
C           2.6727415    -1.7476583    -1.8949250
H           1.7297633    -2.2468784    -2.1253237
H           3.4250706    -2.5247666    -1.6936845
H           2.9914547    -1.1981050    -2.7931233
C           5.7222087     1.4126902     0.7170246
H           6.5542725     1.9986760     1.0959429
C           4.4625215     1.4928635     1.3121596
H           4.3050254     2.1477632     2.1659561
C           3.3893673     0.7456406     0.8335352
H           2.4277268     0.8365332     1.3249258
C           3.5456021    -0.1197317    -0.2741603
C           4.8262178    -0.1937091    -0.8695229
H           4.9967432    -0.8429443    -1.7203518
C           5.8872400     0.5615843    -0.3763206
H           6.8578438     0.4788552    -0.8598068
