25
050_C12H10N2O_21-0-2-9 (-165,) energy =    -648.0497112
N           1.7144519    -0.9995405    -0.8426980
H           1.7189696    -0.1020224    -1.3102399
C           2.7396268    -1.2951089     0.0321461
C           5.5866227     1.8148165     0.8952321
H           6.3191595     2.5846419     1.1223268
C           5.9073918     0.4667455     1.0756092
H           6.8906311     0.1851141     1.4422515
C           4.9667169    -0.5185940     0.7886129
H           5.1907138    -1.5701561     0.9337960
C           3.6980279    -0.1698941     0.3042826
C           3.3788494     1.1854224     0.1356569
H           2.3867046     1.4876669    -0.1892641
C           4.3195237     2.1720050     0.4316089
H           4.0585779     3.2192674     0.3071957
O           2.8733446    -2.3925447     0.5637074
C          -1.8763300    -2.8623106    -1.6891164
H          -2.8403542    -3.2835330    -1.9556550
C          -0.9775784    -3.5488847    -0.8700181
H          -1.2280910    -4.5314975    -0.4791567
C           0.2510963    -2.9781602    -0.5543673
H           0.9828357    -3.4749751     0.0666117
C           0.5248154    -1.7058090    -1.0811508
N          -0.3231730    -1.0326238    -1.8718425
C          -1.4935355    -1.6093286    -2.1629679
H          -2.1548453    -1.0334128    -2.8081815
25
050_C12H10N2O_21-0-2-9 (-150,) energy =    -648.0476381
N           1.8720270    -1.1436709    -1.0695919
H           1.8826059    -0.2417968    -1.5297990
C           2.8540448    -1.3933537    -0.1259101
C           5.4659391     1.8415832     0.9839206
H           6.1372827     2.6443574     1.2766371
C           5.8384894     0.5090561     1.1809359
H           6.8010633     0.2729302     1.6261110
C           4.9759065    -0.5181714     0.8092405
H           5.2406609    -1.5587501     0.9648467
C           3.7346826    -0.2277845     0.2243361
C           3.3633272     1.1118264     0.0382428
H           2.3876738     1.3673321    -0.3665545
C           4.2254311     2.1405550     0.4186811
H           3.9234305     3.1748840     0.2799552
O           2.9887863    -2.4826540     0.4199086
C          -1.9123281    -2.7404188    -1.5411117
H          -2.9254603    -3.0922784    -1.7070503
C          -0.9928120    -3.4807474    -0.7945777
H          -1.2760766    -4.4364696    -0.3616528
C           0.2991736    -2.9997876    -0.6108234
H           1.0501537    -3.5425002    -0.0539558
C           0.6120545    -1.7570743    -1.1840446
N          -0.2535817    -1.0349023    -1.9080354
C          -1.4851681    -1.5279544    -2.0776479
H          -2.1600399    -0.9149003    -2.6726173
25
050_C12H10N2O_21-0-2-9 (-135,) energy =    -648.0441342
N           2.0241144    -1.3052785    -1.2753381
H           2.0543322    -0.4064367    -1.7428615
C           2.9766867    -1.5089097    -0.2804121
C           5.2949443     1.8567424     1.0610229
H           5.8899700     2.6941459     1.4153589
C           5.7387417     0.5467343     1.2634011
H           6.6800245     0.3632613     1.7740779
C           4.9740267    -0.5249823     0.8125757
H           5.2942085    -1.5495996     0.9703609
C           3.7612054    -0.3013869     0.1437313
C           3.3182303     1.0153504    -0.0493548
H           2.3604883     1.2153405    -0.5220741
C           4.0820660     2.0883443     0.4107883
H           3.7249031     3.1041797     0.2667286
O           3.1289337    -2.5938113     0.2662541
C          -1.9104779    -2.5772107    -1.3924999
H          -2.9596342    -2.8453550    -1.4639355
C          -0.9955251    -3.3778192    -0.7039324
H          -1.3193038    -4.2971487    -0.2232551
C           0.3425864    -3.0047654    -0.6443898
H           1.0924059    -3.5991230    -0.1400889
C           0.7061635    -1.8036661    -1.2731031
N          -0.1533781    -1.0258434    -1.9425292
C          -1.4317829    -1.4177028    -1.9973823
H          -2.1015169    -0.7628925    -2.5522681
25
050_C12H10N2O_21-0-2-9 (-120,) energy =    -648.0394127
N           2.1785097    -1.4803725    -1.4612501
H           2.2320769    -0.5933918    -1.9516934
C           3.1204917    -1.6391062    -0.4339312
C           5.0914960     1.8480541     1.1266102
H           5.5959733     2.7180702     1.5382978
C           5.6212449     0.5700971     1.3292418
H           6.5388090     0.4449652     1.8974326
C           4.9723236    -0.5433309     0.8047956
H           5.3595420    -1.5448837     0.9608039
C           3.7909903    -0.3926610     0.0623291
C           3.2618628     0.8916967    -0.1333506
H           2.3258598     1.0299017    -0.6673765
C           3.9096276     2.0057158     0.4014818
H           3.4864925     2.9956275     0.2558034
O           3.3155870    -2.7234436     0.0953360
C          -1.8525965    -2.3967784    -1.2427751
H          -2.9231185    -2.5739594    -1.2261668
C          -0.9576276    -3.2582667    -0.6018249
H          -1.3198143    -4.1347768    -0.0711840
C           0.4071034    -3.0010734    -0.6580245
H           1.1418787    -3.6487304    -0.1974901
C           0.8208685    -1.8503643    -1.3469708
N          -0.0184328    -1.0151886    -1.9693487
C          -1.3263942    -1.2978737    -1.9163384
H          -1.9797376    -0.6003871    -2.4376648
25
050_C12H10N2O_21-0-2-9 (-105,) energy =    -648.0340256
N           2.2993166    -1.6400487    -1.6333632
H           2.3836318    -0.7664972    -2.1462166
C           3.2473619    -1.7541660    -0.5854494
C           4.8535104     1.8209464     1.1736766
H           5.2648297     2.7144892     1.6355850
C           5.4683225     0.5815815     1.3776005
H           6.3582875     0.5105205     1.9967192
C           4.9391223    -0.5620561     0.7885726
H           5.3933914    -1.5353511     0.9428438
C           3.7937918    -0.4793271    -0.0191154
C           3.1796479     0.7665356    -0.2183357
H           2.2711330     0.8480700    -0.8083250
C           3.7076727     1.9099669     0.3820215
H           3.2200283     2.8693381     0.2338463
O           3.5134447    -2.8385169    -0.0954496
C          -1.7706202    -2.1849388    -1.0810982
H          -2.8475759    -2.2699139    -0.9783967
C          -0.9032343    -3.1054681    -0.4842969
H          -1.2948771    -3.9359584     0.0970352
C           0.4686321    -2.9657566    -0.6521442
H           1.1800988    -3.6658795    -0.2316540
C           0.9234545    -1.8709879    -1.4044616
N           0.1108920    -0.9792923    -1.9813876
C          -1.2089151    -1.1499516    -1.8226500
H          -1.8404674    -0.4105381    -2.3120261
25
050_C12H10N2O_21-0-2-9 (-90,) energy =    -648.0310167
N           2.1950912    -1.2090788    -1.9918929
H           2.3272160    -1.6104801    -2.9201647
C           3.3635333    -1.5165209    -1.2140322
C           4.6741404     1.3640137     1.6723834
H           5.0233123     2.0909945     2.4008907
C           5.2774859     0.1040483     1.6000247
H           6.0931290    -0.1484579     2.2717990
C           4.8340354    -0.8261280     0.6655591
H           5.2922948    -1.8065280     0.5858346
C           3.7791882    -0.5048260    -0.2038899
C           3.1781984     0.7607483    -0.1285335
H           2.3775579     1.0110440    -0.8164367
C           3.6276493     1.6914316     0.8075693
H           3.1658703     2.6735212     0.8579089
O           4.0536049    -2.4777771    -1.4998675
C          -1.6834603    -2.2868021    -0.9700550
H          -2.7119247    -2.5745527    -0.7782811
C          -0.8271049    -1.8940035     0.0616767
H          -1.1759155    -1.8677793     1.0906717
C           0.4825008    -1.5337557    -0.2310965
H           1.1647653    -1.2226699     0.5518440
C           0.8979158    -1.5877249    -1.5732312
N           0.0905526    -1.9685234    -2.5702551
C          -1.1681382    -2.3037804    -2.2633447
H          -1.7904207    -2.6064231    -3.1039528
25
050_C12H10N2O_21-0-2-9 (-75,) energy =    -648.0346128
N           2.2582795    -1.3424939    -2.0583546
H           2.3577832    -1.7857156    -2.9701200
C           3.4609199    -1.5265296    -1.3264669
C           4.5228402     1.3177146     1.6999228
H           4.8126085     2.0373543     2.4610060
C           5.1756364     0.0836556     1.6211843
H           5.9715810    -0.1569607     2.3204036
C           4.8094021    -0.8357503     0.6425860
H           5.3132562    -1.7927128     0.5534272
C           3.7775678    -0.5333402    -0.2590800
C           3.1277369     0.7072434    -0.1782515
H           2.3466818     0.9495743    -0.8914785
C           3.5034137     1.6296134     0.7976732
H           3.0048904     2.5934893     0.8501266
O           4.2672435    -2.3681299    -1.6867232
C          -1.6503772    -2.1403278    -0.9072293
H          -2.6899755    -2.3578882    -0.6854891
C          -0.7410274    -1.8024346     0.0972879
H          -1.0571667    -1.7524997     1.1358825
C           0.5824982    -1.5327695    -0.2312602
H           1.3039357    -1.2759449     0.5345451
C           0.9553443    -1.6134061    -1.5840480
N           0.0957478    -1.9463136    -2.5558069
C          -1.1720219    -2.1996423    -2.2137266
H          -1.8343394    -2.4679057    -3.0351974
25
050_C12H10N2O_21-0-2-9 (-60,) energy =    -648.0371403
N           2.3125889    -1.4934621    -2.0805693
H           2.3903742    -1.9524928    -2.9849448
C           3.5426182    -1.5341482    -1.4005183
C           4.3999187     1.2961725     1.7061772
H           4.6410753     2.0142742     2.4854304
C           5.0938188     0.0849368     1.6328929
H           5.8742738    -0.1401570     2.3544052
C           4.7912845    -0.8309519     0.6286601
H           5.3339411    -1.7666326     0.5405091
C           3.7770550    -0.5518713    -0.2988660
C           3.0864936     0.6666405    -0.2241993
H           2.3195605     0.8955935    -0.9572030
C           3.4020294     1.5881119     0.7735266
H           2.8728447     2.5358574     0.8197638
O           4.4364891    -2.2579567    -1.8130046
C          -1.6136188    -2.0209909    -0.8469090
H          -2.6611036    -2.1680383    -0.6052808
C          -0.6616703    -1.7646387     0.1416390
H          -0.9506674    -1.7126503     1.1879993
C           0.6713791    -1.5856085    -0.2108523
H           1.4245436    -1.4031910     0.5447012
C           1.0083366    -1.6629504    -1.5729666
N           0.1067558    -1.9236274    -2.5298265
C          -1.1672584    -2.0973810    -2.1640641
H          -1.8627153    -2.3110949    -2.9740884
25
050_C12H10N2O_21-0-2-9 (-45,) energy =    -648.0385255
N           2.3560765    -1.6498807    -2.0818516
H           2.4219747    -2.1097006    -2.9853450
C           3.6025778    -1.5459576    -1.4610722
C           4.3063972     1.2758680     1.6945683
H           4.5105450     1.9930129     2.4851822
C           5.0397027     0.0884974     1.6209844
H           5.8150048    -0.1192539     2.3532059
C           4.7855523    -0.8251613     0.6007452
H           5.3637062    -1.7392002     0.5106419
C           3.7765304    -0.5713777    -0.3387855
C           3.0475245     0.6243484    -0.2648884
H           2.2850503     0.8383320    -1.0072181
C           3.3171449     1.5458492     0.7462139
H           2.7581581     2.4764340     0.7910753
O           4.5547421    -2.1636523    -1.9177072
C          -1.5793603    -1.9147857    -0.8055089
H          -2.6315086    -1.9929397    -0.5522193
C          -0.5998156    -1.7433519     0.1743829
H          -0.8712124    -1.6933689     1.2254996
C           0.7381206    -1.6531232    -0.1930925
H           1.5124957    -1.5459897     0.5550886
C           1.0512239    -1.7220001    -1.5612840
N           0.1222262    -1.9067948    -2.5100524
C          -1.1556387    -2.0021985    -2.1295613
H          -1.8739986    -2.1574600    -2.9328544
25
050_C12H10N2O_21-0-2-9 (-30,) energy =    -648.0389348
N           2.3837606    -1.7839051    -2.0652142
H           2.4407750    -2.2292172    -2.9756896
C           3.6360999    -1.5400974    -1.5120144
C           4.2354039     1.2562597     1.6893188
H           4.4149472     1.9681116     2.4905856
C           4.9998327     0.0895677     1.6065145
H           5.7753030    -0.1077522     2.3414766
C           4.7784725    -0.8164740     0.5715146
H           5.3847163    -1.7113557     0.4734810
C           3.7684386    -0.5788895    -0.3705769
C           3.0089954     0.5968740    -0.2882076
H           2.2456472     0.8018895    -1.0323617
C           3.2477039     1.5128913     0.7357330
H           2.6651951     2.4286401     0.7867586
O           4.6242485    -2.0563343    -2.0174971
C          -1.5576324    -1.8288692    -0.7894978
H          -2.6120873    -1.8511828    -0.5346115
C          -0.5689199    -1.7158198     0.1899855
H          -0.8358113    -1.6582255     1.2418295
C           0.7710316    -1.6980979    -0.1798726
H           1.5528035    -1.6423365     0.5662125
C           1.0772449    -1.7725263    -1.5493431
N           0.1387957    -1.9047042    -2.4975057
C          -1.1418384    -1.9347956    -2.1146509
H          -1.8689246    -2.0495727    -2.9168506
25
050_C12H10N2O_21-0-2-9 (-15,) energy =    -648.0385726
N           2.4048051    -1.9073852    -2.0263558
H           2.4523133    -2.3344078    -2.9459967
C           3.6528885    -1.5294130    -1.5500728
C           4.1948199     1.2343270     1.6918307
H           4.3605312     1.9386523     2.5026525
C           4.9863423     0.0875913     1.5890423
H           5.7698374    -0.1016045     2.3176205
C           4.7831706    -0.8082003     0.5412226
H           5.4126511    -1.6850763     0.4277736
C           3.7626030    -0.5829623    -0.3922985
C           2.9767594     0.5735265    -0.2905932
H           2.2047108     0.7723249    -1.0275640
C           3.1982609     1.4809081     0.7451260
H           2.5946526     2.3819731     0.8106228
O           4.6565312    -1.9538380    -2.1083985
C          -1.5457911    -1.7650413    -0.7913642
H          -2.6023319    -1.7419372    -0.5451596
C          -0.5617810    -1.6808589     0.1959971
H          -0.8348972    -1.6013062     1.2447642
C           0.7804101    -1.7226733    -0.1631737
H           1.5595904    -1.6932379     0.5872330
C           1.0940006    -1.8229705    -1.5291347
N           0.1596465    -1.9294597    -2.4841609
C          -1.1244918    -1.9037285    -2.1116852
H          -1.8493770    -1.9990815    -2.9183269
25
050_C12H10N2O_21-0-2-9 (0,) energy =    -648.0375537
N           0.7944176    -1.2088290     1.2920203
H           0.0444195    -1.2296591     1.9764810
C           1.9587131    -0.6668653     1.8208624
C           5.2762704     0.6470834    -0.5717451
H           6.1269752     0.9936217    -1.1523964
C           5.4761445    -0.1730444     0.5414590
H           6.4822014    -0.4643702     0.8303812
C           4.3862418    -0.6050780     1.2948861
H           4.5297911    -1.2125460     2.1828861
C           3.0835820    -0.2516491     0.9186478
C           2.8883042     0.5793648    -0.1930911
H           1.8850187     0.8853131    -0.4734846
C           3.9827074     1.0314293    -0.9304338
H           3.8247204     1.6861908    -1.7830312
O           2.0583708    -0.5492246     3.0351792
C          -0.7580280    -2.1191132    -2.4389782
H          -1.2377866    -2.3481802    -3.3849571
C           0.6213652    -2.2540269    -2.2659869
H           1.2494392    -2.6066295    -3.0796164
C           1.1922541    -1.9582354    -1.0336161
H           2.2530038    -2.0885578    -0.8624100
C           0.3471716    -1.5012175    -0.0088646
N          -0.9801968    -1.3919084    -0.1535727
C          -1.5088220    -1.7003590    -1.3431970
H          -2.5907162    -1.6037470    -1.4159022
25
050_C12H10N2O_21-0-2-9 (15,) energy =    -648.0385726
N           0.7650070    -1.0939665     1.2597875
H           0.0203298    -1.1220465     1.9489986
C           1.9796529    -0.6999187     1.8045647
C           5.2866520     0.6712925    -0.5672331
H           6.1351669     1.0317325    -1.1426215
C           5.4910582    -0.1806296     0.5211248
H           6.4978718    -0.4829830     0.7957052
C           4.4041270    -0.6313293     1.2675144
H           4.5493373    -1.2649922     2.1366595
C           3.1004008    -0.2625980     0.9096216
C           2.9005751     0.5996299    -0.1775732
H           1.8964181     0.9160098    -0.4426736
C           3.9920607     1.0688513    -0.9080587
H           3.8314388     1.7474937    -1.7412429
O           2.1089466    -0.6847006     3.0220269
C          -0.7576851    -2.1719590    -2.4377815
H          -1.2312038    -2.4418244    -3.3760681
C           0.6218043    -2.2877231    -2.2537915
H           1.2570239    -2.6655977    -3.0503718
C           1.1859706    -1.9385335    -1.0323120
H           2.2475919    -2.0519620    -0.8556978
C           0.3327886    -1.4512298    -0.0278901
N          -0.9952779    -1.3587073    -0.1831679
C          -1.5159470    -1.7166950    -1.3617943
H          -2.5982914    -1.6314511    -1.4423270
25
050_C12H10N2O_21-0-2-9 (30,) energy =    -648.0389348
N           0.7456235    -0.9712617     1.2177364
H           0.0104052    -1.0176214     1.9161804
C           1.9958360    -0.7272064     1.7756178
C           5.3143703     0.6996853    -0.5435681
H           6.1657738     1.0731576    -1.1062649
C           5.5130971    -0.1829708     0.5212344
H           6.5181643    -0.4966098     0.7894310
C           4.4224940    -0.6512248     1.2509329
H           4.5613639    -1.3113972     2.1011347
C           3.1212324    -0.2660828     0.9008822
C           2.9270121     0.6258859    -0.1633680
H           1.9240646     0.9522538    -0.4204231
C           4.0220360     1.1106198    -0.8778464
H           3.8665003     1.8120046    -1.6929438
O           2.1380610    -0.8181446     2.9880341
C          -0.7756974    -2.2326942    -2.4234758
H          -1.2498765    -2.5466128    -3.3475695
C           0.6062168    -2.3184334    -2.2426939
H           1.2435479    -2.7162055    -3.0278757
C           1.1720826    -1.9116674    -1.0398155
H           2.2370109    -1.9991200    -0.8689373
C           0.3164719    -1.4009757    -0.0489170
N          -1.0138071    -1.3350995    -0.2011936
C          -1.5349164    -1.7469462    -1.3615102
H          -2.6189357    -1.6813990    -1.4386977
25
050_C12H10N2O_21-0-2-9 (45,) energy =    -648.0385255
N           0.7408248    -0.8486996     1.1547967
H           0.0137356    -0.9091980     1.8617325
C           2.0121380    -0.7581493     1.7253191
C           5.3666146     0.7286972    -0.5001943
H           6.2264249     1.1156093    -1.0406283
C           5.5488693    -0.1820029     0.5440323
H           6.5498037    -0.5040769     0.8175294
C           4.4473814    -0.6688910     1.2439735
H           4.5709980    -1.3546727     2.0760012
C           3.1517292    -0.2698646     0.8871649
C           2.9739805     0.6490868    -0.1571556
H           1.9746426     0.9830451    -0.4179328
C           4.0797602     1.1494406    -0.8435114
H           3.9371317     1.8709968    -1.6431868
O           2.1495932    -0.9662841     2.9230107
C          -0.8175629    -2.3084787    -2.3987022
H          -1.3019780    -2.6719390    -3.2989901
C           0.5698588    -2.3432032    -2.2472408
H           1.2023823    -2.7484350    -3.0325445
C           1.1498667    -1.8720445    -1.0746998
H           2.2213729    -1.9151444    -0.9300415
C           0.3005925    -1.3555225    -0.0813903
N          -1.0340822    -1.3353095    -0.2062183
C          -1.5674963    -1.8048988    -1.3383708
H          -2.6544581    -1.7739756    -1.3930057
25
050_C12H10N2O_21-0-2-9 (60,) energy =    -648.0371403
N           0.7438320    -0.7156189     1.0618464
H           0.0236927    -0.7728504     1.7779322
C           2.0224065    -0.7816771     1.6432070
C           5.4379424     0.7601211    -0.4434677
H           6.3126052     1.1591256    -0.9502441
C           5.5911883    -0.1796633     0.5798997
H           6.5840186    -0.5124121     0.8695954
C           4.4709715    -0.6836878     1.2355950
H           4.5696993    -1.3964392     2.0479885
C           3.1858604    -0.2672846     0.8588333
C           3.0371214     0.6791876    -0.1655146
H           2.0448335     1.0223261    -0.4403255
C           4.1616409     1.1931703    -0.8100355
H           4.0419950     1.9353086    -1.5944536
O           2.1366567    -1.1136012     2.8136010
C          -0.8902769    -2.3953215    -2.3621276
H          -1.3934985    -2.8158783    -3.2264951
C           0.5022831    -2.3615677    -2.2683897
H           1.1205355    -2.7664559    -3.0652090
C           1.1072017    -1.8165853    -1.1412738
H           2.1850803    -1.7982548    -1.0451716
C           0.2759119    -1.3055935    -0.1299766
N          -1.0618914    -1.3459222    -0.2009500
C          -1.6187118    -1.8801589    -1.2925665
H          -2.7073391    -1.8953491    -1.3041038
25
050_C12H10N2O_21-0-2-9 (75,) energy =    -648.0346128
N           0.7548235    -0.5974554     0.9516131
H           0.0457163    -0.6335029     1.6820446
C           2.0284237    -0.8181900     1.5390580
C           5.5144891     0.8049446    -0.3554653
H           6.4062610     1.2213241    -0.8164051
C           5.6335085    -0.1611082     0.6484374
H           6.6163238    -0.4965476     0.9676340
C           4.4919677    -0.6899547     1.2436647
H           4.5615608    -1.4288401     2.0353721
C           3.2197018    -0.2655401     0.8309333
C           3.1053479     0.7061809    -0.1743243
H           2.1216324     1.0512806    -0.4754458
C           4.2513585     1.2404911    -0.7621175
H           4.1586974     2.0005968    -1.5328231
O           2.1050003    -1.2930134     2.6601790
C          -0.9813172    -2.4873279    -2.3123453
H          -1.5078374    -2.9627185    -3.1333484
C           0.4118438    -2.3937347    -2.2902888
H           1.0067945    -2.8025918    -3.1026839
C           1.0458710    -1.7775398    -1.2175834
H           2.1255247    -1.7016286    -1.1791868
C           0.2435521    -1.2663868    -0.1829055
N          -1.0926825    -1.3586426    -0.1867700
C          -1.6783982    -1.9547845    -1.2307942
H          -2.7650878    -2.0088496    -1.1904638
25
050_C12H10N2O_21-0-2-9 (90,) energy =    -648.0310167
N           0.7903501    -0.5136836     0.8177125
H           0.0971228    -0.4994846     1.5657117
C           2.0540142    -0.8700679     1.4016546
C           5.5974351     0.8855934    -0.2440639
H           6.5033072     1.3321003    -0.6455265
C           5.6853438    -0.1155792     0.7289213
H           6.6575807    -0.4476710     1.0821696
C           4.5265949    -0.6853796     1.2463482
H           4.5702699    -1.4575909     2.0074816
C           3.2677423    -0.2604045     0.7918537
C           3.1846296     0.7451477    -0.1830841
H           2.2092248     1.0841724    -0.5155476
C           4.3484795     1.3159043    -0.6970455
H           4.2807239     2.1001681    -1.4457869
O           2.0912893    -1.5032773     2.4406784
C          -1.0770276    -2.6022773    -2.2481445
H          -1.6323527    -3.1277682    -3.0180732
C           0.3136950    -2.4791948    -2.3015031
H           0.8764232    -2.9119749    -3.1244404
C           0.9829902    -1.7971582    -1.2928250
H           2.0611572    -1.6859275    -1.3137770
C           0.2204621    -1.2579569    -0.2418156
N          -1.1110237    -1.3742323    -0.1745455
C          -1.7329677    -2.0295109    -1.1618091
H          -2.8154090    -2.0999644    -1.0679623
25
050_C12H10N2O_21-0-2-9 (105,) energy =    -648.0340255
N           1.0451280    -1.0204449     0.8684168
H           0.8749547    -0.0183293     0.8738541
C           2.4104965    -1.3457054     1.0685073
C           5.4194337     1.5226613    -0.0155666
H           6.1943590     2.2330290    -0.2909471
C           5.7268518     0.4368370     0.8103099
H           6.7401470     0.3027388     1.1786062
C           4.7348477    -0.4736224     1.1594909
H           4.9538747    -1.3293982     1.7896789
C           3.4209495    -0.3047113     0.6945785
C           3.1187306     0.7853183    -0.1358042
H           2.1177873     0.9143609    -0.5377986
C           4.1185083     1.6910674    -0.4918075
H           3.8804120     2.5257012    -1.1451373
O           2.7438084    -2.4646976     1.4198573
C          -1.1959438    -2.4847744    -2.2936783
H          -1.8105614    -2.8023367    -3.1297391
C          -0.3738235    -3.3835494    -1.6064771
H          -0.3369413    -4.4302822    -1.8963715
C           0.3870880    -2.9365580    -0.5336853
H           1.0196755    -3.5976879     0.0459017
C           0.3105050    -1.5735809    -0.2054024
N          -0.4675824    -0.6982215    -0.8508193
C          -1.2085554    -1.1600241    -1.8676332
H          -1.8355723    -0.4221439    -2.3650915
25
050_C12H10N2O_21-0-2-9 (120,) energy =    -648.0394126
N           1.1294110    -0.9641550     0.6247811
H           0.9592712     0.0358329     0.5899980
C           2.4669917    -1.3230174     0.8484622
C           5.5384239     1.6092770     0.1788481
H           6.3295701     2.3347453     0.0094473
C           5.7840357     0.4738421     0.9568776
H           6.7658391     0.3157337     1.3944698
C           4.7712772    -0.4561192     1.1698534
H           4.9441454    -1.3501328     1.7599744
C           3.4970088    -0.2578339     0.6162898
C           3.2582286     0.8808628    -0.1674134
H           2.2930897     1.0343806    -0.6420959
C           4.2782263     1.8071773    -0.3870304
H           4.0884687     2.6800054    -1.0053770
O           2.7855028    -2.4700797     1.1255227
C          -1.4097062    -2.6300888    -2.1885822
H          -2.1028770    -2.9967433    -2.9387604
C          -0.5251098    -3.4870585    -1.5274907
H          -0.5163633    -4.5504485    -1.7514374
C           0.3379767    -2.9778970    -0.5643482
H           1.0257817    -3.6024831    -0.0091330
C           0.2934809    -1.5962867    -0.3211139
N          -0.5470588    -0.7598042    -0.9400641
C          -1.3816476    -1.2802685    -1.8489423
H          -2.0548842    -0.5722014    -2.3290660
25
050_C12H10N2O_21-0-2-9 (135,) energy =    -648.0441342
N           1.1992439    -0.9020189     0.3392462
H           1.0345634     0.0957554     0.2703024
C           2.5103356    -1.2886432     0.6046282
C           5.6146462     1.6788655     0.3589433
H           6.4138427     2.4128434     0.3004858
C           5.7997944     0.4976789     1.0831801
H           6.7425776     0.3117780     1.5902001
C           4.7769054    -0.4432174     1.1540704
H           4.9046360    -1.3718094     1.7005534
C           3.5514945    -0.2112226     0.5115003
C           3.3752579     0.9726964    -0.2196429
H           2.4537957     1.1559089    -0.7656087
C           4.4048051     1.9111007    -0.2966983
H           4.2626855     2.8197181    -0.8750206
O           2.8137711    -2.4513843     0.8390273
C          -1.6023619    -2.7411435    -2.0858365
H          -2.3663426    -3.1519442    -2.7379863
C          -0.6583691    -3.5585017    -1.4589094
H          -0.6722992    -4.6344796    -1.6110301
C           0.2980802    -2.9944683    -0.6220740
H           1.0379593    -3.5856225    -0.0996345
C           0.2785584    -1.5994910    -0.4676978
N          -0.6204611    -0.7998313    -1.0544125
C          -1.5394452    -1.3715324    -1.8415157
H          -2.2558771    -0.6915902    -2.2993696
25
050_C12H10N2O_21-0-2-9 (150,) energy =    -648.0476381
N           1.2920677    -0.8611197     0.0466588
H           1.1214305     0.1330882    -0.0410873
C           2.5743813    -1.2652677     0.3776421
C           5.6650315     1.7252994     0.5286474
H           6.4597320     2.4650101     0.5744752
C           5.7966574     0.5121531     1.2099387
H           6.6932972     0.3064370     1.7880557
C           4.7797683    -0.4361875     1.1471710
H           4.8676914    -1.3889876     1.6585814
C           3.6125283    -0.1799995     0.4129717
C           3.4913135     1.0356618    -0.2759150
H           2.6204874     1.2409386    -0.8928161
C           4.5147392     1.9820103    -0.2188132
H           4.4153160     2.9159283    -0.7648891
O           2.8651674    -2.4350463     0.6006576
C          -1.7459778    -2.8279314    -1.9521011
H          -2.5750337    -3.2707931    -2.4946135
C          -0.7440345    -3.6129049    -1.3769171
H          -0.7762253    -4.6959983    -1.4601720
C           0.2983073    -3.0083355    -0.6823897
H           1.0885620    -3.5730211    -0.2078052
C           0.2973064    -1.6063303    -0.6105976
N          -0.6571431    -0.8364130    -1.1502923
C          -1.6530944    -1.4461610    -1.8021865
H          -2.4107863    -0.7889397    -2.2255551
25
050_C12H10N2O_21-0-2-9 (165,) energy =    -648.0497114
N           1.3883555    -0.8481478    -0.2418087
H           1.2087008     0.1439195    -0.3295188
C           2.6372320    -1.2588221     0.1769192
C           5.6646659     1.7585950     0.6834427
H           6.4412954     2.5058600     0.8222280
C           5.7490738     0.5286737     1.3413321
H           6.5912321     0.3171272     1.9944212
C           4.7556988    -0.4295582     1.1591666
H           4.8088981    -1.3954233     1.6503650
C           3.6576901    -0.1658191     0.3280828
C           3.5846884     1.0665812    -0.3374800
H           2.7720497     1.2789065    -1.0272752
C           4.5849872     2.0226143    -0.1607127
H           4.5237060     2.9698969    -0.6891333
O           2.9151161    -2.4306391     0.4101095
C          -1.8591133    -2.8793441    -1.7933471
H          -2.7456335    -3.3385247    -2.2188420
C          -0.8057739    -3.6463571    -1.2910912
H          -0.8537675    -4.7317877    -1.3154441
C           0.3124505    -3.0214821    -0.7487901
H           1.1472455    -3.5719792    -0.3389564
C           0.3271051    -1.6175555    -0.7445085
N          -0.6754029    -0.8640311    -1.2184849
C          -1.7396099    -1.4928199    -1.7275742
H          -2.5334298    -0.8482356    -2.1013040
25
050_C12H10N2O_21-0-2-9 (180,) energy =    -648.0503395
N           1.5584524    -0.8828583    -0.6104989
H           1.5654460     0.0091764    -1.0882269
C           2.6378462    -1.2206437     0.1783883
C           5.6681794     1.7774081     0.7770329
H           6.4476903     2.5181443     0.9335625
C           5.9485351     0.4185853     0.9420107
H           6.9473721     0.0991790     1.2263803
C           4.9478786    -0.5295452     0.7459656
H           5.1414107    -1.5883043     0.8819430
C           3.6579091    -0.1326992     0.3669427
C           3.3801788     1.2337357     0.2145189
H           2.3765543     1.5739332    -0.0273215
C           4.3811356     2.1830620     0.4201289
H           4.1524673     3.2393217     0.3087620
O           2.7808915    -2.3283964     0.6856995
C          -1.8017932    -2.9550464    -1.8324586
H          -2.7058161    -3.4312189    -2.1983332
C          -0.9411392    -3.6019636    -0.9433955
H          -1.1617188    -4.6077158    -0.5956803
C           0.2092951    -2.9595995    -0.4971422
H           0.9075693    -3.4223156     0.1853773
C           0.4492721    -1.6615177    -0.9755656
N          -0.3649160    -1.0242590    -1.8295198
C          -1.4617567    -1.6673244    -2.2417252
H          -2.0971507    -1.1185049    -2.9348592
