27
143_C14H11FO_0-6-7-21 (-165,) energy =    -715.1744807
C          -0.3293621     0.2556788    -0.9817330
F          -0.3554309     1.2298579    -1.9018473
C          -1.4900183    -0.4912007    -0.8143588
H          -2.3581380    -0.2445386    -1.4166902
C          -1.5095634    -1.5269622     0.1182553
H          -2.4169868    -2.1081805     0.2561753
C           0.8472696    -0.0104908    -0.2570846
C           2.0489399     0.8877130    -0.3620346
C          -0.3682993    -1.8100658     0.8709984
H          -0.3807222    -2.6076914     1.6076136
C           5.9028471    -0.5339923     0.9227142
H           6.8847161    -0.8813225     1.2334414
C           5.4737866     0.7442231     1.2822437
H           6.1279241     1.3799274     1.8742607
C           0.7883686    -1.0578502     0.6816369
H           1.6653107    -1.2666920     1.2840725
C           4.2241502     1.2425007     0.8946912
C           3.8349470     2.6492144     1.2884744
H           4.5145049     3.0302013     2.0574487
H           2.8125825     2.7022660     1.6758123
H           3.8718859     3.3221096     0.4264552
C           3.3751590     0.3910682     0.1485580
C           3.8111371    -0.8958129    -0.2048714
H           3.1579048    -1.5322941    -0.7950269
C           5.0716372    -1.3587753     0.1667242
H           5.3969275    -2.3524171    -0.1283199
O           1.9451202     2.0232785    -0.8046712
27
143_C14H11FO_0-6-7-21 (-150,) energy =    -715.1756726
C          -0.2634818     0.1639182    -1.0233727
F          -0.2046753     1.0912530    -1.9917386
C          -1.3995030    -0.6345034    -0.9634036
H          -2.1945051    -0.4686765    -1.6829913
C          -1.4870205    -1.6211278     0.0182072
H          -2.3763685    -2.2424295     0.0749169
C           0.8173106    -0.0019203    -0.1431244
C           1.9811528     0.9533963    -0.1556808
C          -0.4371254    -1.8076747     0.9197060
H          -0.5054176    -2.5700587     1.6898360
C           5.8996000    -0.5420152     0.8020739
H           6.8956023    -0.9114683     1.0319460
C           5.5338373     0.7493293     1.1830533
H           6.2512497     1.3726956     1.7113567
C           0.7010438    -1.0085183     0.8309683
H           1.5135145    -1.1470699     1.5370464
C           4.2683069     1.2766637     0.8989714
C           3.9560081     2.6945062     1.3187453
H           4.7139527     3.0557399     2.0213963
H           2.9736123     2.7790434     1.7927744
H           3.9341341     3.3649974     0.4542917
C           3.3372844     0.4408213     0.2330242
C           3.7119607    -0.8610557    -0.1399215
H           2.9969923    -1.4868160    -0.6651872
C           4.9868533    -1.3523552     0.1289263
H           5.2611990    -2.3566652    -0.1811278
O           1.8049215     2.1284556    -0.4468576
27
143_C14H11FO_0-6-7-21 (-135,) energy =    -715.1757331
C          -0.4384916     0.9017596    -0.2112718
F          -0.4484657     2.2049427     0.1201438
C          -1.5273903     0.3945601    -0.9099681
H          -2.3523818     1.0566953    -1.1514143
C          -1.5284435    -0.9508783    -1.2788378
H          -2.3794231    -1.3576665    -1.8177934
C           0.6699715     0.1139501     0.1208779
C           1.7876049     0.6717399     0.9679113
C          -0.4405089    -1.7668961    -0.9613892
H          -0.4408801    -2.8147372    -1.2462372
C           5.8336187     0.0295490    -0.3363582
H           6.8588561    -0.1201592    -0.6647592
C           5.5619141     0.2207337     1.0186196
H           6.3815082     0.2132100     1.7330717
C           0.6506068    -1.2313181    -0.2781919
H           1.5002895    -1.8619056    -0.0329556
C           4.2615068     0.4295589     1.4932981
C           4.0540638     0.6501430     2.9734206
H           4.9726076     0.4149402     3.5209143
H           3.2415903     0.0357220     3.3724704
H           3.7771925     1.6875977     3.1837030
C           3.2018198     0.4143389     0.5493724
C           3.4862513     0.2116195    -0.8123999
H           2.6702964     0.2146601    -1.5276669
C           4.7912150     0.0309462    -1.2617180
H           4.9896168    -0.1097552    -2.3203966
O           1.5119544     1.3083667     1.9752776
27
143_C14H11FO_0-6-7-21 (-120,) energy =    -715.1749636
C          -0.3188097     0.8869335    -0.2453071
F          -0.2037702     2.1955710     0.0548155
C          -1.4045529     0.4743992    -1.0078173
H          -2.1336468     1.2105325    -1.3301998
C          -1.5243195    -0.8767934    -1.3352329
H          -2.3728252    -1.2117877    -1.9249778
C           0.6651124    -0.0005795     0.1961096
C           1.7829911     0.4774874     1.0984173
C          -0.5566002    -1.7905211    -0.9123078
H          -0.6482201    -2.8421344    -1.1671642
C           5.8097603     0.1512396    -0.3674929
H           6.8289720     0.0771622    -0.7378209
C           5.5799095     0.3370833     0.9958215
H           6.4268174     0.4023367     1.6744797
C           0.5343459    -1.3488728    -0.1631660
H           1.2942316    -2.0552619     0.1600586
C           4.2883702     0.4474582     1.5245737
C           4.1309540     0.6611265     3.0112876
H           5.1008294     0.5596228     3.5091931
H           3.4306220    -0.0515578     3.4569082
H           3.7255503     1.6534826     3.2302340
C           3.1933545     0.3443584     0.6249678
C           3.4381803     0.1492343    -0.7462450
H           2.5963162     0.0801950    -1.4267228
C           4.7329483     0.0608978    -1.2480113
H           4.8975903    -0.0789956    -2.3125151
O           1.4905553     0.9592789     2.1837197
27
143_C14H11FO_0-6-7-21 (-105,) energy =    -715.1741696
C          -0.1659233     0.8548776    -0.3223174
F           0.0972940     2.1529870    -0.0588727
C          -1.2549324     0.5435291    -1.1265403
H          -1.8727828     1.3460548    -1.5159836
C          -1.5206110    -0.7975478    -1.4072033
H          -2.3711409    -1.0566250    -2.0312032
C           0.6760298    -0.1205738     0.2099527
C           1.7952678     0.2665533     1.1610995
C          -0.6957727    -1.7992745    -0.8913246
H          -0.9016983    -2.8430763    -1.1090328
C           5.7972425     0.2804318    -0.4000734
H           6.8097890     0.2881359    -0.7951928
C           5.5854274     0.4688780     0.9656725
H           6.4397220     0.6203356     1.6208241
C           0.3978576    -1.4587479    -0.0936240
H           1.0426512    -2.2367142     0.3066617
C           4.3030876     0.4724470     1.5274360
C           4.1676958     0.6910763     3.0151152
H           5.1591021     0.7621276     3.4744053
H           3.6128134    -0.1190560     3.4977090
H           3.6096190     1.6055120     3.2374517
C           3.1982055     0.2662878     0.6563574
C           3.4263626     0.0744383    -0.7185770
H           2.5778212    -0.0781748    -1.3766180
C           4.7111156     0.0837267    -1.2513972
H           4.8612455    -0.0612397    -2.3173170
O           1.4957058     0.5591299     2.3096983
27
143_C14H11FO_0-6-7-21 (-90,) energy =    -715.1740856
C          -0.0210443     0.7816845    -0.3765695
F           0.3964644     2.0529990    -0.1814671
C          -1.1295823     0.5546075    -1.1820290
H          -1.6413641     1.3987729    -1.6325459
C          -1.5524864    -0.7602339    -1.3823851
H          -2.4183049    -0.9549184    -2.0087318
C           0.6874209    -0.2501750     0.2352182
C           1.8176036     0.0547615     1.2058894
C          -0.8681119    -1.8174761    -0.7789744
H          -1.1999971    -2.8401804    -0.9314590
C           5.7700537     0.4368859    -0.4279112
H           6.7707999     0.5326815    -0.8411297
C           5.5688682     0.5996424     0.9427297
H           6.4188470     0.8224115     1.5829527
C           0.2409638    -1.5604799     0.0285656
H           0.7680249    -2.3805640     0.5087162
C           4.3022907     0.4870869     1.5283320
C           4.1776760     0.6818117     3.0201297
H           5.1571246     0.9163782     3.4497152
H           3.7815675    -0.2111116     3.5132233
H           3.4815683     1.4891789     3.2661697
C           3.2022724     0.1962397     0.6754979
C           3.4191225     0.0370344    -0.7053056
H           2.5744752    -0.1862317    -1.3482480
C           4.6887307     0.1534776    -1.2608698
H           4.8311074     0.0253215    -2.3299894
O           1.5393030     0.1387738     2.3934822
27
143_C14H11FO_0-6-7-21 (-75,) energy =    -715.1752007
C           0.1553664     0.6814795    -0.4959959
F           0.7259720     1.9050510    -0.4155933
C          -0.9749382     0.5208987    -1.2874612
H          -1.3791445     1.3774437    -1.8169820
C          -1.5596484    -0.7433285    -1.3687437
H          -2.4429685    -0.8862699    -1.9845761
C           0.7311192    -0.3695167     0.2160704
C           1.8715984    -0.1384346     1.1904527
C          -1.0171205    -1.8157290    -0.6562267
H          -1.4778533    -2.7974138    -0.7130658
C           5.7790977     0.5719552    -0.4419009
H           6.7691173     0.7477584    -0.8546859
C           5.5691902     0.6962245     0.9314320
H           6.4017412     0.9711976     1.5742665
C           0.1094362    -1.6225037     0.1428269
H           0.5194356    -2.4450615     0.7218961
C           4.3160220     0.4780723     1.5162170
C           4.1801329     0.6328697     3.0120007
H           5.1232824     0.9901061     3.4382877
H           3.9133211    -0.3136295     3.4916737
H           3.3847677     1.3354322     3.2782069
C           3.2381115     0.1265418     0.6589402
C           3.4620413     0.0107182    -0.7245912
H           2.6352948    -0.2643968    -1.3708510
C           4.7195884     0.2244853    -1.2785759
H           4.8690744     0.1233809    -2.3496236
O           1.6260406    -0.2437754     2.3845555
27
143_C14H11FO_0-6-7-21 (-60,) energy =    -715.1768448
C           0.3060555     0.6388253    -0.5101941
F           0.9988558     1.7990900    -0.4986787
C          -0.8465582     0.5648538    -1.2833371
H          -1.1590266     1.4341328    -1.8526512
C          -1.5720557    -0.6261461    -1.2934235
H          -2.4729399    -0.6993031    -1.8960160
C           0.7692423    -0.4335412     0.2541834
C           1.9401073    -0.3204092     1.2056594
C          -1.1484228    -1.7141312    -0.5247631
H          -1.7195437    -2.6376867    -0.5245875
C           5.7915789     0.7102459    -0.3900329
H           6.7697051     0.9620049    -0.7916431
C           5.5613506     0.8050244     0.9823381
H           6.3649893     1.1349094     1.6361382
C          -0.0001016    -1.6062890     0.2562787
H           0.3212561    -2.4315420     0.8844594
C           4.3233170     0.4852889     1.5525226
C           4.1624912     0.6068497     3.0493908
H           5.0422212     1.0940374     3.4824580
H           4.0382008    -0.3738435     3.5183091
H           3.2731140     1.1833976     3.3206669
C           3.2806660     0.0718018     0.6817169
C           3.5222456    -0.0101276    -0.7006167
H           2.7234107    -0.3381201    -1.3575420
C           4.7672959     0.2953384    -1.2399109
H           4.9335547     0.2145337    -2.3102560
O           1.7540218    -0.6290291     2.3763716
27
143_C14H11FO_0-6-7-21 (-45,) energy =    -715.1778691
C           0.4020763     0.5764440    -0.5490750
F           1.1771658     1.6804365    -0.6100693
C          -0.7714178     0.5654960    -1.2948960
H          -1.0173175     1.4302118    -1.9024701
C          -1.6019565    -0.5521897    -1.2293612
H          -2.5188727    -0.5730068    -1.8115934
C           0.7840814    -0.4935705     0.2663146
C           2.0001283    -0.4932006     1.1605210
C          -1.2617748    -1.6332332    -0.4104212
H          -1.9128165    -2.5002710    -0.3514116
C           5.7873712     0.8131043    -0.3847517
H           6.7523192     1.1292378    -0.7724892
C           5.5289535     0.8977944     0.9832382
H           6.2970861     1.2851758     1.6481830
C          -0.0898685    -1.5906435     0.3387368
H           0.1777286    -2.4080139     1.0008244
C           4.3073812     0.4923070     1.5342637
C           4.1124129     0.5959830     3.0290040
H           4.9118800     1.1989883     3.4716757
H           4.1201455    -0.3923380     3.4986917
H           3.1504515     1.0473598     3.2892003
C           3.3091351     0.0132294     0.6486163
C           3.5755204    -0.0573859    -0.7288549
H           2.8100487    -0.4397608    -1.3967614
C           4.8075556     0.3257487    -1.2486674
H           4.9974770     0.2501092    -2.3154792
O           1.8883578    -0.9708315     2.2838562
27
143_C14H11FO_0-6-7-21 (-30,) energy =    -715.1776297
C           0.4794131     0.5328130    -0.6119718
F           1.3199383     1.5781949    -0.7569232
C          -0.7180350     0.5749683    -1.3188168
H          -0.9142487     1.4242412    -1.9649879
C          -1.6323955    -0.4652533    -1.1675039
H          -2.5674993    -0.4416214    -1.7200165
C           0.8034853    -0.5184109     0.2549999
C           2.0629616    -0.6251321     1.0774054
C          -1.3499794    -1.5261706    -0.3011810
H          -2.0637361    -2.3348594    -0.1761714
C           5.8064579     0.9280880    -0.3392144
H           6.7634126     1.3026863    -0.6931758
C           5.4975529     0.9899983     1.0196004
H           6.2184612     1.4178554     1.7121367
C          -0.1512460    -1.5405857     0.4028369
H           0.0831683    -2.3454568     1.0917766
C           4.2850484     0.5068505     1.5262079
C           4.0319612     0.5775954     3.0146975
H           4.7574922     1.2454889     3.4901457
H           4.1155206    -0.4112414     3.4759276
H           3.0256724     0.9395757     3.2464198
C           3.3468442    -0.0182877     0.6051417
C           3.6612963    -0.0675156    -0.7620342
H           2.9407363    -0.4880968    -1.4571692
C           4.8869863     0.3879471    -1.2375090
H           5.1177740     0.3282023    -2.2972887
O           2.0147215    -1.2475462     2.1327247
27
143_C14H11FO_0-6-7-21 (-15,) energy =    -715.1762310
C           0.5307538     0.4611217    -0.6929193
F           1.4250980     1.4341162    -0.9616686
C          -0.7038694     0.5530181    -1.3287561
H          -0.8745049     1.3733751    -2.0180714
C          -1.6836932    -0.3980506    -1.0563158
H          -2.6478800    -0.3328758    -1.5526928
C           0.8306470    -0.5561293     0.2245630
C           2.1345462    -0.7570316     0.9556048
C          -1.4261107    -1.4246161    -0.1418749
H          -2.1882146    -2.1663589     0.0773964
C           5.8368771     1.0241275    -0.2918456
H           6.7861524     1.4540837    -0.6006060
C           5.4634400     1.0611423     1.0517138
H           6.1266080     1.5241324     1.7785971
C          -0.1876347    -1.4938723     0.4833639
H           0.0366670    -2.2786959     1.1979094
C           4.2585158     0.5062088     1.4990314
C           3.9298577     0.5424264     2.9744487
H           4.5871102     1.2474721     3.4932186
H           4.0538597    -0.4454884     3.4287968
H           2.8932636     0.8411172     3.1604312
C           3.3946010    -0.0613336     0.5344141
C           3.7719285    -0.0884212    -0.8159321
H           3.1067421    -0.5422903    -1.5448976
C           4.9916043     0.4371470    -1.2325873
H           5.2740304     0.3955025    -2.2807051
O           2.1491841    -1.5061691     1.9261308
27
143_C14H11FO_0-6-7-21 (0,) energy =    -715.1743168
C           0.5729687     0.3737729    -0.7813409
F           1.5170907     1.2388736    -1.2021815
C          -0.7029542     0.5401031    -1.3123767
H          -0.8641277     1.3298642    -2.0386691
C          -1.7307758    -0.3014916    -0.8967032
H          -2.7278846    -0.1765092    -1.3096138
C           0.8698089    -0.6122097     0.1714951
C           2.2133039    -0.9025310     0.7914286
C          -1.4762190    -1.2984172     0.0510725
H          -2.2742033    -1.9570747     0.3803207
C           5.8749743     1.1018681    -0.2248584
H           6.8159079     1.5866212    -0.4717419
C           5.4095417     1.1179012     1.0901326
H           5.9931251     1.6195015     1.8585289
C          -0.1953076    -1.4463129     0.5661299
H           0.0304861    -2.2156068     1.2967295
C           4.2109364     0.4932194     1.4547719
C           3.7722514     0.5007601     2.9020611
H           4.3527139     1.2308242     3.4746530
H           3.9101408    -0.4845670     3.3589542
H           2.7115895     0.7516549     3.0110421
C           3.4516397    -0.1248720     0.4377433
C           3.9186936    -0.1335057    -0.8828168
H           3.3305884    -0.6221798    -1.6543277
C           5.1311116     0.4648960    -1.2170629
H           5.4859606     0.4399341    -2.2435148
O           2.2876139    -1.7728676     1.6509792
27
143_C14H11FO_0-6-7-21 (15,) energy =    -715.1747902
C           0.6465978     0.5085944    -0.2466839
F           1.5775110     1.4239625    -0.5895104
C          -0.6841029     0.9102512    -0.2981547
H          -0.9127901     1.9266210    -0.6014363
C          -1.6817528    -0.0039400     0.0325484
H          -2.7231981     0.3033533    -0.0020952
C           1.0287602    -0.7875246     0.1220085
C           2.4379038    -1.3135510     0.1659184
C          -1.3413373    -1.3096705     0.4012062
H          -2.1169534    -2.0254953     0.6562626
C           6.0184628     1.0524440    -0.0434554
H           6.9364625     1.6313417    -0.1015613
C           5.0906581     1.3235830     0.9614872
H           5.3031381     2.1025728     1.6903169
C          -0.0051690    -1.6893052     0.4364117
H           0.2847185    -2.6995470     0.7054308
C           3.8893275     0.6118930     1.0681363
C           2.9337905     0.9484174     2.1925328
H           3.4756690     1.3926826     3.0335524
H           2.4025683     0.0685952     2.5677220
H           2.1803723     1.6755612     1.8681832
C           3.6422179    -0.4117901     0.1299315
C           4.5985050    -0.7119848    -0.8513405
H           4.4031336    -1.5338759    -1.5333162
C           5.7735177     0.0266421    -0.9562916
H           6.4960617    -0.2057820    -1.7335706
O           2.6097228    -2.5269371     0.1725950
27
143_C14H11FO_0-6-7-21 (30,) energy =    -715.1751739
C           0.6578607     0.5723582    -0.3141237
F           1.5892313     1.4406805    -0.7636653
C          -0.6625936     1.0067683    -0.2841551
H          -0.8928336     2.0127686    -0.6192294
C          -1.6508441     0.1339211     0.1672132
H          -2.6847844     0.4657774     0.1990767
C           1.0370277    -0.7125974     0.0891342
C           2.4315724    -1.2687122    -0.0035817
C          -1.3126339    -1.1624853     0.5685097
H          -2.0825256    -1.8457350     0.9141186
C           6.0810433     0.9956032     0.1321484
H           7.0162210     1.5489390     0.1565080
C           5.0861835     1.2741674     1.0680197
H           5.2643671     2.0326435     1.8268975
C           0.0131595    -1.5781600     0.5129793
H           0.2953604    -2.5876683     0.7934560
C           3.8593707     0.5975083     1.0698861
C           2.8442962     0.9477253     2.1371115
H           3.3450565     1.3961283     3.0010406
H           2.2872307     0.0755482     2.4906642
H           2.1136855     1.6770451     1.7690104
C           3.6562154    -0.4032410     0.0939760
C           4.6788649    -0.7084132    -0.8188812
H           4.5096925    -1.5091198    -1.5317336
C           5.8784494    -0.0048633    -0.8186488
H           6.6509569    -0.2424363    -1.5445634
O           2.5627193    -2.4730130    -0.1909229
27
143_C14H11FO_0-6-7-21 (45,) energy =    -715.1743924
C           0.6075346     0.5915730    -0.4007923
F           1.5065969     1.4333703    -0.9573695
C          -0.7095423     1.0221641    -0.2935753
H          -0.9755987     2.0064932    -0.6646027
C          -1.6509129     0.1693348     0.2815487
H          -2.6825706     0.4962024     0.3760051
C           1.0281822    -0.6635736     0.0458154
C           2.4112069    -1.2104742    -0.1842370
C          -1.2706733    -1.1014056     0.7242311
H          -2.0058577    -1.7694360     1.1627436
C           6.1030302     0.9482536     0.2398211
H           7.0482516     1.4767956     0.3323410
C           5.0609959     1.2340216     1.1196410
H           5.2125258     1.9733293     1.9027007
C           0.0504098    -1.5161971     0.5838118
H           0.3563490    -2.5126252     0.8865029
C           3.8180027     0.5911703     1.0365928
C           2.7603386     0.9596859     2.0556745
H           3.2299901     1.4149019     2.9333467
H           2.1815426     0.0970700     2.3958799
H           2.0506951     1.6897524     1.6501007
C           3.6478423    -0.3862955     0.0285862
C           4.7166526    -0.6933506    -0.8317258
H           4.5644743    -1.4698226    -1.5741157
C           5.9321883    -0.0257529    -0.7444641
H           6.7392763    -0.2671079    -1.4303810
O           2.5108876    -2.3750019    -0.5529541
27
143_C14H11FO_0-6-7-21 (60,) energy =    -715.1725344
C           0.5041323     0.6069508    -0.4607761
F           1.3375800     1.4538155    -1.1077443
C          -0.8154661     0.9955375    -0.2667084
H          -1.1479178     1.9540523    -0.6515552
C          -1.6746744     0.1322933     0.4133255
H          -2.7081425     0.4241523     0.5767151
C           1.0069778    -0.6095463     0.0003310
C           2.3818474    -1.1082366    -0.3669470
C          -1.2110415    -1.1043091     0.8715603
H          -1.8830181    -1.7818781     1.3897089
C           6.1345260     0.8569036     0.3683341
H           7.0953494     1.3365722     0.5361233
C           5.0509106     1.1743090     1.1840934
H           5.1847952     1.8913290     1.9904976
C           0.1108588    -1.4784389     0.6405562
H           0.4721260    -2.4536238     0.9525709
C           3.7856900     0.5953645     1.0073535
C           2.6887499     1.0118363     1.9646391
H           3.1268833     1.4961043     2.8428898
H           2.0856818     0.1693534     2.3122382
H           2.0050159     1.7318096     1.5014040
C           3.6353073    -0.3529854    -0.0340477
C           4.7437913    -0.6835817    -0.8361482
H           4.6001261    -1.4286382    -1.6112388
C           5.9818858    -0.0827080    -0.6518009
H           6.8188326    -0.3458933    -1.2923871
O           2.4485493    -2.1929548    -0.9323212
27
143_C14H11FO_0-6-7-21 (75,) energy =    -715.1704338
C           0.3954362     0.6255734    -0.5129438
F           1.1253465     1.5189653    -1.2225828
C          -0.9246620     0.9322052    -0.2106161
H          -1.3480424     1.8655823    -0.5669896
C          -1.6673709     0.0206343     0.5405383
H          -2.7007016     0.2457057     0.7882827
C           1.0120173    -0.5506541    -0.0933699
C           2.3832420    -0.9541358    -0.5885379
C          -1.0865933    -1.1776523     0.9636334
H          -1.6674756    -1.8927150     1.5384794
C           6.2077124     0.6652097     0.5362589
H           7.1875670     1.0526655     0.8031662
C           5.0831096     1.0791847     1.2455001
H           5.2028158     1.7849789     2.0636688
C           0.2352536    -1.4678625     0.6274878
H           0.6813750    -2.4136689     0.9210206
C           3.7923289     0.6185543     0.9443395
C           2.6542169     1.1580579     1.7845422
H           3.0552251     1.7072654     2.6418043
H           1.9980800     0.3719392     2.1668508
H           2.0309847     1.8525982     1.2116869
C           3.6561467    -0.3111272    -0.1184083
C           4.8040238    -0.7269873    -0.8215416
H           4.6650772    -1.4442316    -1.6228537
C           6.0683768    -0.2479208    -0.5095843
H           6.9350196    -0.5827646    -1.0725354
O           2.4172478    -1.8939200    -1.3726080
27
143_C14H11FO_0-6-7-21 (90,) energy =    -715.1695461
C           0.2454973     0.6616169    -0.5345765
F           0.8330098     1.6281588    -1.2811823
C          -1.0569709     0.8538675    -0.0955862
H          -1.5854973     1.7585164    -0.3780170
C          -1.6467237    -0.1314977     0.6979079
H          -2.6654757     0.0021297     1.0500404
C           0.9911362    -0.4687191    -0.2127863
C           2.3553037    -0.7227483    -0.8228799
C          -0.9303249    -1.2819909     1.0341392
H          -1.3901300    -2.0517706     1.6467424
C           6.1979429     0.4272142     0.7355439
H           7.1815624     0.6917521     1.1149670
C           5.0602922     0.9856837     1.3130277
H           5.1731526     1.6878393     2.1352246
C           0.3757413    -1.4516709     0.5716156
H           0.9283310    -2.3546555     0.8162068
C           3.7647692     0.6803519     0.8693221
C           2.6135924     1.3829123     1.5564857
H           2.9953641     2.0241264     2.3565833
H           1.8987085     0.6840008     2.0003134
H           2.0602986     2.0185040     0.8585831
C           3.6355918    -0.2350029    -0.2073752
C           4.7960482    -0.7842244    -0.7877626
H           4.6618410    -1.4747059    -1.6130903
C           6.0661395    -0.4658459    -0.3282930
H           6.9428458    -0.9087187    -0.7923320
O           2.3746515    -1.4207269    -1.8274164
27
143_C14H11FO_0-6-7-21 (105,) energy =    -715.1701791
C           0.1046826     0.6636165    -0.5735941
F           0.5379146     1.6795039    -1.3566795
C          -1.1721929     0.7320236    -0.0342369
H          -1.8056239     1.5798835    -0.2737219
C          -1.6001306    -0.2984693     0.8048899
H          -2.5981895    -0.2623231     1.2318494
C           0.9790086    -0.3870164    -0.3070399
C           2.3269642    -0.4876739    -0.9913053
C          -0.7472647    -1.3644393     1.0975529
H          -1.0785405    -2.1655918     1.7515301
C           6.1253274     0.2196844     0.8922718
H           7.0956088     0.3748372     1.3568808
C           5.0109216     0.9049710     1.3725087
H           5.1300014     1.6010108     2.1992031
C           0.5350616    -1.4037375     0.5464338
H           1.1999289    -2.2331791     0.7723985
C           3.7340209     0.7361989     0.8186552
C           2.6010672     1.5654293     1.3843940
H           2.9934801     2.2897533     2.1046315
H           1.8561879     0.9518047     1.9017377
H           2.0781026     2.1239405     0.6024778
C           3.6015062    -0.1620726    -0.2693697
C           4.7389216    -0.8281263    -0.7630569
H           4.6054185    -1.4914918    -1.6110400
C           5.9911095    -0.6527484    -0.1882722
H           6.8523287    -1.1874854    -0.5787114
O           2.3493125    -0.9194003    -2.1341617
27
143_C14H11FO_0-6-7-21 (120,) energy =    -715.1712977
C           0.0075693     0.6597071    -0.6608836
F           0.3125769     1.6673686    -1.5064379
C          -1.2536645     0.6313490    -0.0814853
H          -1.9752460     1.3975872    -0.3451885
C          -1.5521325    -0.3843379     0.8287221
H          -2.5373389    -0.4223664     1.2845834
C           0.9909192    -0.2827886    -0.3607883
C           2.3242093    -0.2790230    -1.0707612
C          -0.5870034    -1.3379399     1.1590849
H          -0.8176280    -2.1251890     1.8705892
C           6.0766469     0.0456342     0.9942351
H           7.0339496     0.1106488     1.5048624
C           5.0001937     0.8109692     1.4409820
H           5.1375344     1.4808359     2.2864172
C           0.6791620    -1.2770838     0.5748134
H           1.4367357    -2.0112926     0.8358803
C           3.7424452     0.7545829     0.8255176
C           2.6417900     1.6555008     1.3454004
H           3.0615736     2.4076312     2.0205253
H           1.8811397     1.0970568     1.9021644
H           2.1279253     2.1839636     0.5363698
C           3.5925243    -0.1055740    -0.2882393
C           4.6925493    -0.8457931    -0.7547303
H           4.5513319    -1.4707656    -1.6308318
C           5.9252734    -0.7873252    -0.1147738
H           6.7599703    -1.3790692    -0.4797021
O           2.3530390    -0.4891863    -2.2733475
27
143_C14H11FO_0-6-7-21 (135,) energy =    -715.1723188
C          -0.0757523     0.5919229    -0.8108977
F           0.1136470     1.5096993    -1.7769465
C          -1.3323014     0.4968374    -0.2258583
H          -2.1285646     1.1448365    -0.5770612
C          -1.5323070    -0.4300185     0.7981101
H          -2.5133205    -0.5176510     1.2563647
C           1.0015458    -0.1982783    -0.3982394
C           2.3314115    -0.1349871    -1.0995162
C          -0.4771246    -1.2338523     1.2358654
H          -0.6328156    -1.9547700     2.0328333
C           6.0673258    -0.0829621     1.0244964
H           7.0201189    -0.0817403     1.5475018
C           5.0190695     0.7069925     1.4949298
H           5.1738914     1.3322155     2.3710940
C           0.7810259    -1.1052827     0.6481790
H           1.6086358    -1.7208942     0.9899632
C           3.7680860     0.7324826     0.8634890
C           2.6977268     1.6531690     1.4123717
H           3.1461017     2.3877381     2.0886167
H           1.9332268     1.1067219     1.9757854
H           2.1806172     2.2028010     0.6195863
C           3.5961526    -0.0681604    -0.2898277
C           4.6690048    -0.8315455    -0.7797628
H           4.5137603    -1.4060760    -1.6875524
C           5.8949515    -0.8563506    -0.1239629
H           6.7087555    -1.4649013    -0.5079908
O           2.3768370    -0.2069554    -2.3182625
27
143_C14H11FO_0-6-7-21 (150,) energy =    -715.1728123
C          -0.1464228     0.5103249    -0.9138573
F          -0.0534699     1.3519152    -1.9557115
C          -1.3988252     0.3156435    -0.3432068
H          -2.2546236     0.8309294    -0.7667734
C          -1.5204520    -0.5367401     0.7540706
H          -2.4978345    -0.7000558     1.1992804
C           1.0079736    -0.1055957    -0.4098805
C           2.3367285     0.0379063    -1.0937722
C          -0.3925522    -1.1728572     1.2783181
H          -0.4865459    -1.8403470     2.1295613
C           6.0550449    -0.2125126     1.0537932
H           7.0032283    -0.2844011     1.5801619
C           5.0543544     0.6274264     1.5408687
H           5.2411440     1.2186343     2.4343952
C           0.8567257    -0.9479618     0.7035232
H           1.7372018    -1.4405560     1.1058466
C           3.8120065     0.7458830     0.9029123
C           2.7904862     1.7109263     1.4681184
H           3.2785070     2.4270646     2.1366718
H           2.0128279     1.1968337     2.0445063
H           2.2828279     2.2803422     0.6831844
C           3.5985315    -0.0104541    -0.2717848
C           4.6249409    -0.8227307    -0.7793815
H           4.4441550    -1.3597477    -1.7054033
C           5.8425516    -0.9411105    -0.1169831
H           6.6205092    -1.5865939    -0.5148303
O           2.4018044     0.1087214    -2.3121005
27
143_C14H11FO_0-6-7-21 (165,) energy =    -715.1723039
C          -0.1991133     0.3540266    -0.9930730
F          -0.1975521     1.1204711    -2.0926313
C          -1.4329840     0.0301704    -0.4397377
H          -2.3331255     0.3943072    -0.9239229
C          -1.4807177    -0.7519646     0.7131814
H          -2.4430809    -1.0128660     1.1444493
C           1.0129260    -0.0629604    -0.4162961
C           2.3338165     0.2019645    -1.0756541
C          -0.2974644    -1.1975349     1.3071522
H          -0.3308269    -1.8149825     2.1996480
C           6.0537209    -0.3275068     1.0245075
H           7.0016407    -0.4657825     1.5378306
C           5.1095115     0.5597089     1.5400625
H           5.3390037     1.1207102     2.4431757
C           0.9286611    -0.8516142     0.7451999
H           1.8490952    -1.2089185     1.1961165
C           3.8711074     0.7631126     0.9163469
C           2.9030438     1.7684081     1.5046994
H           3.4306702     2.4596153     2.1693641
H           2.1128784     1.2849121     2.0913597
H           2.4077826     2.3631677     0.7304055
C           3.6010969     0.0444673    -0.2685841
C           4.5707302    -0.8150882    -0.8054822
H           4.3536725    -1.3221157    -1.7408891
C           5.7862884    -1.0177162    -0.1581042
H           6.5214609    -1.6982162    -0.5784810
O           2.4087339     0.4456916    -2.2707725
27
143_C14H11FO_0-6-7-21 (180,) energy =    -715.1726211
C          -0.3632737     0.3501441    -0.8910095
F          -0.4429844     1.3901324    -1.7309200
C          -1.5440968    -0.3331301    -0.6205995
H          -2.4594247     0.0105418    -1.0909969
C          -1.5232213    -1.4277405     0.2410150
H          -2.4450200    -1.9612219     0.4554502
C           0.8735224    -0.0339122    -0.3347781
C           2.1182113     0.7767190    -0.5572176
C          -0.3217766    -1.8283041     0.8288427
H          -0.2986875    -2.6717841     1.5121047
C           5.9099795    -0.5042523     1.0318817
H           6.8784055    -0.8113982     1.4178449
C           5.3991048     0.7521777     1.3609195
H           5.9761369     1.4121936     2.0043861
C           0.8502486    -1.1323075     0.5475503
H           1.7730675    -1.4307825     1.0306697
C           4.1626899     1.1962956     0.8775769
C           3.6703117     2.5813509     1.2316030
H           4.2682194     3.0048225     2.0445751
H           2.6213889     2.5779253     1.5468282
H           3.7339093     3.2514624     0.3684026
C           3.4154705     0.3158466     0.0641305
C           3.9310952    -0.9468069    -0.2616347
H           3.3554258    -1.6057339    -0.9065264
C           5.1775135    -1.3579069     0.2091698
H           5.5681065    -2.3344644    -0.0629688
O           2.0945265     1.8297757    -1.1779064
