29
381_C14H14O_0-6-13-11 (-165,) energy =    -617.1419222
C           0.7831159    -0.8931705     1.2104361
H           1.4498763    -1.6541149     1.6397983
C          -0.2572738    -0.4924424     2.2586986
H           0.2379596    -0.1144190     3.1586596
H          -0.8764562    -1.3541680     2.5273506
H          -0.9107272     0.2911276     1.8620031
O           1.5440918     0.2947032     0.9530068
C           5.4639261     0.2141408    -0.4704106
H           6.4880543     0.2203943    -0.8321379
C           4.9017903     1.3682942     0.0847490
H           5.4897143     2.2794122     0.1604590
C           3.5917230     1.3609235     0.5522176
H           3.1426374     2.2448529     0.9947354
C           2.8206532     0.1931521     0.4627379
C           3.3721334    -0.9652879    -0.0968929
H           2.7820953    -1.8682314    -0.2002525
C           4.6925561    -0.9430276    -0.5565034
H           5.1124923    -1.8458606    -0.9926253
C          -1.1831315    -2.4893370    -2.3011440
H          -1.6885453    -2.8901947    -3.1756678
C          -0.7749153    -3.3421708    -1.2743113
H          -0.9595619    -4.4108636    -1.3459249
C          -0.1197888    -2.8244098    -0.1559117
H           0.2017865    -3.4948408     0.6392456
C           0.1300846    -1.4512147    -0.0465454
C          -0.2820970    -0.6025254    -1.0804031
H          -0.0777878     0.4613252    -1.0061067
C          -0.9324263    -1.1191892    -2.2013728
H          -1.2420060    -0.4501349    -3.0000799
29
381_C14H14O_0-6-13-11 (-150,) energy =    -617.1412166
C           0.8004924    -0.8265994     1.1109450
H           1.5091511    -1.5547844     1.5288210
C          -0.1991699    -0.4156768     2.1946174
H           0.3284426    -0.0068275     3.0621705
H          -0.7931171    -1.2786492     2.5123235
H          -0.8813155     0.3476483     1.8067278
O           1.5205568     0.3689108     0.7701025
C           5.5339539     0.2588127    -0.3616697
H           6.5816031     0.2540167    -0.6484782
C           4.9880130     1.3620798     0.3013147
H           5.6122414     2.2198188     0.5382877
C           3.6475221     1.3675271     0.6767913
H           3.2092933     2.2100228     1.2029512
C           2.8317244     0.2691458     0.3752485
C           3.3690103    -0.8395115    -0.2894597
H           2.7412823    -1.6868082    -0.5417066
C           4.7192332    -0.8351639    -0.6503006
H           5.1296456    -1.6978068    -1.1690275
C          -1.2875059    -2.5872843    -2.2490573
H          -1.8226115    -3.0296681    -3.0850587
C          -0.8480924    -3.3891541    -1.1941808
H          -1.0378494    -4.4593063    -1.2057257
C          -0.1554742    -2.8188903    -0.1251728
H           0.1903595    -3.4501301     0.6915005
C           0.1022662    -1.4428383    -0.0936059
C          -0.3400295    -0.6457733    -1.1557000
H          -0.1283328     0.4190253    -1.1416866
C          -1.0291292    -1.2152316    -2.2270958
H          -1.3624097    -0.5857783    -3.0481754
29
381_C14H14O_0-6-13-11 (-135,) energy =    -617.1399506
C           0.8103119    -0.7731538     1.0363676
H           1.5424468    -1.4756261     1.4565343
C          -0.1596835    -0.3332232     2.1355943
H           0.3900474     0.1153278     2.9692024
H          -0.7325210    -1.1897552     2.5057529
H          -0.8635115     0.4066582     1.7409214
O           1.5058261     0.4164701     0.6187934
C           5.5798280     0.2567163    -0.2679838
H           6.6424012     0.2344252    -0.4927078
C           5.0478099     1.2783535     0.5230579
H           5.6972618     2.0530006     0.9226093
C           3.6865319     1.3039216     0.8203440
H           3.2566385     2.0826124     1.4428193
C           2.8416353     0.3142297     0.3055983
C           3.3660309    -0.7136811    -0.4868141
H           2.7097077    -1.4773134    -0.8905296
C           4.7344188    -0.7356821    -0.7655397
H           5.1370724    -1.5338271    -1.3839746
C          -1.3588975    -2.6863137    -2.1861906
H          -1.9143839    -3.1665191    -2.9873292
C          -0.8722390    -3.4425944    -1.1184878
H          -1.0449517    -4.5151994    -1.0855476
C          -0.1539336    -2.8237453    -0.0943226
H           0.2290556    -3.4197482     0.7321053
C           0.0830816    -1.4438936    -0.1205990
C          -0.4059430    -0.6927902    -1.1959765
H          -0.2083643     0.3743111    -1.2278311
C          -1.1210876    -1.3107845    -2.2224788
H          -1.4908826    -0.7166044    -3.0541771
29
381_C14H14O_0-6-13-11 (-120,) energy =    -617.1386556
C           0.7928453    -0.7094520     1.0183081
H           1.5238868    -1.3849349     1.4818310
C          -0.1916443    -0.2197888     2.0827418
H           0.3466501     0.2691083     2.9010407
H          -0.7692806    -1.0579990     2.4861140
H          -0.8904123     0.4999697     1.6440761
O           1.4884668     0.4623927     0.5447394
C           5.5786237     0.1956073    -0.2473288
H           6.6446647     0.1424932    -0.4499535
C           5.0886494     1.0762802     0.7195911
H           5.7735864     1.7101125     1.2768803
C           3.7208285     1.1402280     0.9852893
H           3.3208494     1.8140646     1.7368051
C           2.8336537     0.3331959     0.2666526
C           3.3161942    -0.5513973    -0.7046550
H           2.6217539    -1.1706611    -1.2624900
C           4.6884216    -0.6163846    -0.9528898
H           5.0609213    -1.3021659    -1.7095337
C          -1.3311568    -2.8028224    -2.1208433
H          -1.8755968    -3.3282107    -2.9009483
C          -0.8118495    -3.5059827    -1.0325741
H          -0.9474249    -4.5821496    -0.9625144
C          -0.1072522    -2.8291573    -0.0357240
H           0.3022626    -3.3838605     0.8064703
C           0.0825913    -1.4441216    -0.1094767
C          -0.4395174    -0.7462143    -1.2055075
H          -0.2774102     0.3252079    -1.2749722
C          -1.1401233    -1.4218887    -2.2052422
H          -1.5358252    -0.8688333    -3.0532567
29
381_C14H14O_0-6-13-11 (-105,) energy =    -617.1380167
C           0.7325532    -0.5326687     1.0829066
H           1.4196029    -1.1671377     1.6592970
C          -0.3359616     0.0342285     2.0186266
H           0.1330523     0.5922710     2.8352434
H          -0.9433689    -0.7734000     2.4399757
H          -0.9979477     0.7115570     1.4691433
O           1.4700588     0.6057560     0.5866564
C           5.5107613     0.0892658    -0.3390695
H           6.5642454    -0.0275555    -0.5778849
C           5.1247636     0.7316687     0.8391827
H           5.8771178     1.1175722     1.5221836
C           3.7720091     0.8808831     1.1468279
H           3.4519777     1.3824223     2.0553132
C           2.7995524     0.3923259     0.2693151
C           3.1790087    -0.2455717    -0.9163362
H           2.4169103    -0.6084015    -1.5970916
C           4.5349867    -0.3962658    -1.2121566
H           4.8283098    -0.8906878    -2.1346790
C          -1.1044080    -2.8850166    -2.0534498
H          -1.5763932    -3.4750452    -2.8345570
C          -0.5178515    -3.5153556    -0.9556429
H          -0.5277542    -4.5995103    -0.8788936
C           0.0942826    -2.7542086     0.0425346
H           0.5587270    -3.2512130     0.8919423
C           0.1216005    -1.3581089    -0.0391122
C          -0.4695091    -0.7328973    -1.1453129
H          -0.4337448     0.3501464    -1.2225471
C          -1.0757633    -1.4909110    -2.1466298
H          -1.5259647    -0.9936000    -3.0019663
29
381_C14H14O_0-6-13-11 (-90,) energy =    -617.1381460
C           0.6651183    -0.4215369     1.1262838
H           1.3140173    -1.0177051     1.7832272
C          -0.4569188     0.2002861     1.9566860
H          -0.0372036     0.8147562     2.7594761
H          -1.0850560    -0.5815683     2.3956572
H          -1.0885398     0.8358368     1.3274549
O           1.4351256     0.6850131     0.6063564
C           5.4263950    -0.0205930    -0.4015119
H           6.4677256    -0.1858214    -0.6639175
C           5.0806635     0.3449990     0.9013559
H           5.8526513     0.4688489     1.6564317
C           3.7442015     0.5616044     1.2385772
H           3.4591492     0.8626346     2.2426625
C           2.7482819     0.4088079     0.2689485
C           3.0884195     0.0493102    -1.0381249
H           2.3054261    -0.0550990    -1.7813527
C           4.4281379    -0.1642323    -1.3673078
H           4.6913176    -0.4423533    -2.3845637
C          -0.9323337    -2.9775453    -1.9816158
H          -1.3432433    -3.6188086    -2.7568557
C          -0.3161780    -3.5369928    -0.8623107
H          -0.2412856    -4.6167060    -0.7625108
C           0.2164352    -2.7093665     0.1290030
H           0.7043991    -3.1505578     0.9957274
C           0.1334791    -1.3179530     0.0191047
C          -0.4863599    -0.7644423    -1.1098843
H          -0.5386765     0.3163111    -1.2101140
C          -1.0133628    -1.5874724    -2.1040771
H          -1.4881400    -1.1450633    -2.9761402
29
381_C14H14O_0-6-13-11 (-75,) energy =    -617.1384642
C           0.6855660    -0.3451541     1.1266113
H           1.3154795    -0.9080235     1.8294431
C          -0.4532887     0.3220603     1.8958042
H          -0.0504012     0.9841722     2.6688421
H          -1.0883243    -0.4343577     2.3680697
H          -1.0738710     0.9173115     1.2181544
O           1.4688625     0.7295250     0.5629511
C           5.4305424    -0.0526330    -0.4994592
H           6.4642194    -0.2371331    -0.7784581
C           5.0724928     0.0354247     0.8478631
H           5.8285450    -0.0742629     1.6210618
C           3.7473578     0.2788260     1.2095654
H           3.4630508     0.3740238     2.2538655
C           2.7720685     0.4250755     0.2173074
C           3.1248606     0.3410428    -1.1315583
H           2.3544847     0.4626969    -1.8857106
C           4.4544569     0.1053933    -1.4852096
H           4.7260956     0.0420130    -2.5357161
C          -0.8216821    -3.0595699    -1.8902231
H          -1.2093516    -3.7404333    -2.6433689
C          -0.2284545    -3.5597839    -0.7311710
H          -0.1484195    -4.6328514    -0.5779849
C           0.2739558    -2.6813085     0.2315695
H           0.7440145    -3.0765598     1.1298073
C           0.1834561    -1.2974646     0.0531322
C          -0.4124719    -0.8038566    -1.1154714
H          -0.4724461     0.2703042    -1.2681343
C          -0.9097161    -1.6778501    -2.0809965
H          -1.3666482    -1.2816589    -2.9842670
29
381_C14H14O_0-6-13-11 (-60,) energy =    -617.1386815
C           0.6633568    -0.3038665     1.1306362
H           1.2656359    -0.8386691     1.8766040
C          -0.4869284     0.4101320     1.8379595
H          -0.0966699     1.1050380     2.5883923
H          -1.1405830    -0.3172398     2.3299542
H          -1.0845669     0.9772127     1.1170113
O           1.4638757     0.7365902     0.5315111
C           5.4217434    -0.0290674    -0.5548424
H           6.4537253    -0.2077409    -0.8432422
C           5.0180605    -0.2270929     0.7671837
H           5.7374563    -0.5533672     1.5139934
C           3.6958492     0.0064701     1.1466620
H           3.3921574    -0.1200895     2.1816597
C           2.7643975     0.4287808     0.1911250
C           3.1638349     0.6311538    -1.1325492
H           2.4261754     0.9642011    -1.8554785
C           4.4905123     0.4058624    -1.5001005
H           4.7945415     0.5660093    -2.5312754
C          -0.7749988    -3.1493512    -1.7973616
H          -1.1438582    -3.8631612    -2.5291402
C          -0.2308479    -3.5970725    -0.5935669
H          -0.1706036    -4.6618136    -0.3837344
C           0.2480766    -2.6766478     0.3413611
H           0.6798872    -3.0311245     1.2751747
C           0.1825397    -1.3026651     0.0899633
C          -0.3635555    -0.8620717    -1.1229907
H          -0.4027598     0.2033319    -1.3320996
C          -0.8375071    -1.7783026    -2.0605882
H          -1.2553091    -1.4233708    -2.9992493
29
381_C14H14O_0-6-13-11 (-45,) energy =    -617.1390509
C           0.5982731    -0.2414289     1.1874578
H           1.1246076    -0.7303880     2.0178122
C          -0.6074982     0.5083752     1.7533112
H          -0.2791462     1.2549145     2.4835355
H          -1.2932090    -0.1910588     2.2417387
H          -1.1489125     1.0197420     0.9510178
O           1.4409426     0.7740297     0.6110768
C           5.3241975    -0.0241338    -0.7003554
H           6.3367663    -0.2059658    -1.0489857
C           4.8812542    -0.5828694     0.4989815
H           5.5521418    -1.1980257     1.0932555
C           3.5829115    -0.3523930     0.9575644
H           3.2601961    -0.7794780     1.9014563
C           2.7100734     0.4345133     0.1976725
C           3.1510679     1.0002002    -1.0035491
H           2.4613765     1.6168943    -1.5715022
C           4.4528084     0.7733206    -1.4459727
H           4.7845828     1.2174043    -2.3809449
C          -0.6224121    -3.2522391    -1.6715139
H          -0.9390989    -4.0072032    -2.3862030
C          -0.2349733    -3.6238003    -0.3838716
H          -0.2457059    -4.6703987    -0.0909265
C           0.1790161    -2.6512130     0.5284877
H           0.4890198    -2.9471985     1.5287933
C           0.2019236    -1.2994032     0.1707648
C          -0.1877794    -0.9352653    -1.1245576
H          -0.1585396     0.1113621    -1.4137876
C          -0.5948499    -1.9047689    -2.0399417
H          -0.8899159    -1.6093420    -3.0435003
29
381_C14H14O_0-6-13-11 (-30,) energy =    -617.1401173
C           0.5803379    -0.2210427     1.1927503
H           1.0875452    -0.6640613     2.0611488
C          -0.6487509     0.5399193     1.6916541
H          -0.3479658     1.3232363     2.3947038
H          -1.3388853    -0.1445807     2.1946177
H          -1.1738334     1.0061803     0.8519718
O           1.4260475     0.7799923     0.6033269
C           5.2961657     0.0195520    -0.7610249
H           6.3066965    -0.1485610    -1.1220328
C           4.7677762    -0.7783202     0.2530526
H           5.3684936    -1.5722116     0.6895584
C           3.4699425    -0.5712558     0.7267864
H           3.0802652    -1.2043916     1.5159139
C           2.6844393     0.4422537     0.1663751
C           3.2113839     1.2480316    -0.8509324
H           2.5877164     2.0355329    -1.2630338
C           4.5093051     1.0368930    -1.3080895
H           4.9060648     1.6684546    -2.0988072
C          -0.5671916    -3.3636429    -1.5516874
H          -0.8676490    -4.1515151    -2.2372234
C          -0.2699926    -3.6661679    -0.2224287
H          -0.3357521    -4.6914270     0.1322711
C           0.1238479    -2.6523296     0.6528193
H           0.3623785    -2.8947529     1.6867775
C           0.2166119    -1.3269732     0.2153223
C          -0.0838759    -1.0317669    -1.1203640
H          -0.0001654    -0.0069392    -1.4702312
C          -0.4701698    -2.0435997    -1.9984767
H          -0.6945233    -1.8020617    -3.0341852
29
381_C14H14O_0-6-13-11 (-15,) energy =    -617.1412165
C           0.5968083    -0.2260975     1.1524705
H           1.1388729    -0.6360777     2.0164398
C          -0.6266717     0.5358555     1.6655610
H          -0.3155572     1.3404780     2.3393747
H          -1.2957118    -0.1419811     2.2046753
H          -1.1790026     0.9736368     0.8280240
O           1.4115952     0.7636655     0.5098755
C           5.3370235     0.0968866    -0.7359515
H           6.3619102    -0.0460252    -1.0658633
C           4.7289218    -0.8371128     0.1005624
H           5.2797399    -1.7157203     0.4266051
C           3.4104994    -0.6667348     0.5328753
H           2.9567226    -1.4158848     1.1706569
C           2.6885043     0.4561011     0.1128051
C           3.2954063     1.3987070    -0.7290135
H           2.7177428     2.2656236    -1.0351000
C           4.6096815     1.2179115    -1.1478081
H           5.0678753     1.9566031    -1.8004713
C          -0.6275739    -3.4555543    -1.4552824
H          -0.9485860    -4.2648694    -2.1055779
C          -0.3641240    -3.7017937    -0.1071230
H          -0.4773185    -4.7040979     0.2977064
C           0.0558237    -2.6612038     0.7230102
H           0.2668875    -2.8600573     1.7722886
C           0.2100142    -1.3643695     0.2206138
C          -0.0573568    -1.1252269    -1.1326990
H           0.0729294    -0.1236062    -1.5316725
C          -0.4702125    -2.1649784    -1.9655717
H          -0.6679871    -1.9675493    -3.0159358
29
381_C14H14O_0-6-13-11 (0,) energy =    -617.1418830
C           0.6234744    -0.2352427     1.0881429
H           1.2110470    -0.6205996     1.9335795
C          -0.5783910     0.5370153     1.6365062
H          -0.2407349     1.3556646     2.2799006
H          -1.2241201    -0.1295470     2.2166233
H          -1.1655411     0.9565489     0.8134073
O           1.4052012     0.7354913     0.3813118
C           5.4000563     0.1638403    -0.6753491
H           6.4422033     0.0453020    -0.9573635
C           4.7268079    -0.8611981    -0.0145069
H           5.2425821    -1.7890971     0.2192443
C           3.3845530    -0.7236021     0.3531489
H           2.8778829    -1.5461023     0.8432153
C           2.7085043     0.4644517     0.0525979
C           3.3803150     1.4988237    -0.6151645
H           2.8359325     2.4123508    -0.8343008
C           4.7149351     1.3459569    -0.9748729
H           5.2239327     2.1560769    -1.4907871
C          -0.7213596    -3.5318675    -1.3741821
H          -1.0720961    -4.3575758    -1.9874561
C          -0.4618978    -3.7271222    -0.0166905
H          -0.6083398    -4.7061003     0.4321678
C          -0.0041949    -2.6660415     0.7659581
H           0.2029200    -2.8253860     1.8228045
C           0.1932902    -1.3985247     0.2058564
C          -0.0699244    -1.2103918    -1.1558788
H           0.0935076    -0.2321408    -1.5979477
C          -0.5215788    -2.2713936    -1.9410783
H          -0.7159803    -2.1137132    -2.9987732
29
381_C14H14O_0-6-13-11 (15,) energy =    -617.1419299
C           0.6443600    -0.2328690     0.9927223
H           1.2745444    -0.5925903     1.8182016
C          -0.5302828     0.5598617     1.5702543
H          -0.1629793     1.3942450     2.1760530
H          -1.1543397    -0.0869592     2.1950450
H          -1.1501236     0.9593957     0.7612416
O           1.3963465     0.7083180     0.2146072
C           5.4615921     0.2509386    -0.5995562
H           6.5211646     0.1593214    -0.8200217
C           4.7447017    -0.8421022    -0.1170246
H           5.2434961    -1.7958146     0.0357390
C           3.3796217    -0.7397338     0.1681587
H           2.8355716    -1.6109425     0.5132255
C           2.7274426     0.4835291    -0.0260809
C           3.4423976     1.5856671    -0.5161801
H           2.9136883     2.5230878    -0.6593028
C           4.7987132     1.4659641    -0.8009129
H           5.3424259     2.3283689    -1.1779961
C          -0.8167973    -3.6012043    -1.3015581
H          -1.1959231    -4.4444753    -1.8725957
C          -0.5272696    -3.7466194     0.0562042
H          -0.6785173    -4.7042949     0.5474275
C          -0.0336520    -2.6632256     0.7845707
H           0.1962296    -2.7839508     1.8418068
C           0.1708245    -1.4224431     0.1690834
C          -0.1215096    -1.2845162    -1.1926520
H           0.0487786    -0.3277731    -1.6770592
C          -0.6101249    -2.3680348    -1.9232933
H          -0.8276127    -2.2493517    -2.9815985
29
381_C14H14O_0-6-13-11 (30,) energy =    -617.1413027
C           0.4584927     0.0001999     0.5496189
H           0.8661176    -0.2104906     1.5478690
C          -0.7002905     0.9919069     0.6769315
H          -0.3631035     1.9079249     1.1723163
H          -1.5167446     0.5516099     1.2582698
H          -1.0844762     1.2503167    -0.3150778
O           1.4649995     0.6727094    -0.2240683
C           5.5379655    -0.0206798     0.3486234
H           6.6039492    -0.1798108     0.4835302
C           4.6313521    -1.0403145     0.6353665
H           4.9896020    -2.0037181     0.9891721
C           3.2578102    -0.8498164     0.4610870
H           2.5668018    -1.6610450     0.6608356
C           2.7876862     0.3889870     0.0091363
C           3.6940994     1.4156045    -0.2865012
H           3.3045194     2.3648505    -0.6412753
C           5.0601976     1.2074454    -0.1185292
H           5.7547545     2.0116245    -0.3474679
C          -0.9243953    -3.6788930    -1.2670445
H          -1.2840514    -4.5981722    -1.7214764
C          -0.9543292    -3.5236989     0.1199578
H          -1.3357789    -4.3222909     0.7509189
C          -0.4856295    -2.3444179     0.7008321
H          -0.5055410    -2.2314927     1.7833676
C           0.0131360    -1.3054857    -0.0945654
C           0.0413626    -1.4692419    -1.4843175
H           0.4419711    -0.6719011    -2.1028536
C          -0.4231026    -2.6493452    -2.0661619
H          -0.3905080    -2.7659291    -3.1463480
29
381_C14H14O_0-6-13-11 (45,) energy =    -617.1401280
C           0.4929905    -0.0109102     0.4728157
H           0.9217248    -0.2000187     1.4660723
C          -0.6378639     1.0132257     0.5950695
H          -0.2663967     1.9358120     1.0524133
H          -1.4517195     0.6133704     1.2086932
H          -1.0385317     1.2497236    -0.3959469
O           1.5005813     0.6047770    -0.3512066
C           5.5613596     0.0422769     0.4213661
H           6.6238620    -0.0866499     0.6071248
C           4.6951595    -1.0485308     0.5033241
H           5.0829201    -2.0344396     0.7467711
C           3.3286051    -0.8953791     0.2589726
H           2.6636594    -1.7514936     0.3001037
C           2.8222027     0.3730094    -0.0488484
C           3.6867636     1.4698853    -0.1383717
H           3.2700985     2.4404730    -0.3894335
C           5.0503361     1.3008614     0.0935169
H           5.7147856     2.1583367     0.0246567
C          -1.0229978    -3.7116295    -1.1869544
H          -1.4159935    -4.6358819    -1.6020267
C          -1.0034954    -3.5158476     0.1950556
H          -1.3791557    -4.2879800     0.8614482
C          -0.4922972    -2.3303189     0.7253596
H          -0.4733583    -2.1860746     1.8041152
C           0.0002901    -1.3253316    -0.1160408
C          -0.0202898    -1.5302717    -1.5007569
H           0.3777897    -0.7602867    -2.1546116
C          -0.5275350    -2.7164896    -2.0321630
H          -0.5329151    -2.8649865    -3.1089306
29
381_C14H14O_0-6-13-11 (60,) energy =    -617.1388293
C           0.5095993     0.0217850     0.4034546
H           0.9392891    -0.1265862     1.4029333
C          -0.6109127     1.0612642     0.4824679
H          -0.2293130     1.9993259     0.8981795
H          -1.4282308     0.6975107     1.1138278
H          -1.0104048     1.2583293    -0.5176877
O           1.5239097     0.5879501    -0.4518647
C           5.5612481     0.0496326     0.4587971
H           6.6173480    -0.0750201     0.6810177
C           4.7437363    -1.0680220     0.2803558
H           5.1641782    -2.0674198     0.3579442
C           3.3874526    -0.9177192    -0.0143503
H           2.7555804    -1.7849014    -0.1747151
C           2.8417001     0.3676938    -0.1096452
C           3.6563472     1.4910017     0.0627779
H           3.2112810     2.4768710    -0.0307976
C           5.0129106     1.3289505     0.3430471
H           5.6410969     2.2058999     0.4764753
C          -1.0503887    -3.7352629    -1.0795035
H          -1.4547426    -4.6733801    -1.4502381
C          -1.0040391    -3.4850076     0.2930067
H          -1.3696288    -4.2286805     0.9963620
C          -0.4780712    -2.2818610     0.7662907
H          -0.4372050    -2.0954177     1.8378774
C           0.0023246    -1.3130940    -0.1228890
C          -0.0454637    -1.5726041    -1.4980916
H           0.3437847    -0.8308653    -2.1889646
C          -0.5669175    -2.7766623    -1.9726932
H          -0.5934264    -2.9674957    -3.0424857
29
381_C14H14O_0-6-13-11 (75,) energy =    -617.1380557
C           0.4814483     0.1557669     0.3159188
H           0.8626419     0.1025173     1.3446934
C          -0.6635576     1.1679482     0.2533485
H          -0.3233352     2.1471374     0.6050685
H          -1.5021929     0.8365326     0.8743452
H          -1.0187455     1.2717968    -0.7771765
O           1.5251077     0.6828658    -0.5317354
C           5.5035788    -0.0879758     0.4812166
H           6.5438548    -0.2737042     0.7338157
C           4.7152913    -1.1130638    -0.0458517
H           5.1426715    -2.0993891    -0.2073041
C           3.3796456    -0.8819037    -0.3797946
H           2.7677477    -1.6701087    -0.8043816
C           2.8274389     0.3867448    -0.1728886
C           3.6127827     1.4174628     0.3517958
H           3.1644955     2.3968410     0.4898093
C           4.9490433     1.1789251     0.6745986
H           5.5562983     1.9847052     1.0788404
C          -0.9068756    -3.7576654    -0.9099260
H          -1.2674412    -4.7357283    -1.2171942
C          -0.7839164    -3.4491948     0.4452911
H          -1.0453116    -4.1872527     1.1991681
C          -0.3132093    -2.1939883     0.8364099
H          -0.2102687    -1.9618409     1.8946214
C           0.0326990    -1.2314468    -0.1179806
C          -0.0931719    -1.5494101    -1.4768742
H           0.1927745    -0.8116909    -2.2212175
C          -0.5571373    -2.8045030    -1.8700463
H          -0.6449475    -3.0401177    -2.9275789
29
381_C14H14O_0-6-13-11 (90,) energy =    -617.1380956
C           0.4671177     0.2755980     0.2393280
H           0.8025094     0.3067773     1.2854550
C          -0.6909105     1.2551717     0.0519630
H          -0.3823586     2.2653165     0.3394059
H          -1.5477319     0.9551081     0.6638612
H          -1.0068119     1.2738409    -0.9962322
O           1.5393360     0.7629470    -0.5977484
C           5.4459481    -0.2449998     0.4850047
H           6.4678270    -0.4945633     0.7570889
C           4.7152544    -1.0924144    -0.3504832
H           5.1678432    -2.0048457    -0.7300552
C           3.4029087    -0.7768136    -0.7068385
H           2.8287123    -1.4255648    -1.3592641
C           2.8202999     0.3980100    -0.2226624
C           3.5478828     1.2514723     0.6123902
H           3.0802891     2.1666516     0.9641395
C           4.8592037     0.9286192     0.9632943
H           5.4236540     1.5974330     1.6079035
C          -0.7507175    -3.7615969    -0.7413541
H          -1.0674104    -4.7716088    -0.9876002
C          -0.5751620    -3.3867189     0.5906771
H          -0.7510548    -4.1043963     1.3877677
C          -0.1615850    -2.0895489     0.9029845
H          -0.0169631    -1.8047556     1.9431644
C           0.0731415    -1.1516055    -0.1071469
C          -0.1047693    -1.5373139    -1.4430363
H           0.0931136    -0.8183576    -2.2334051
C          -0.5112738    -2.8331018    -1.7583670
H          -0.6415872    -3.1201636    -2.7986743
29
381_C14H14O_0-6-13-11 (105,) energy =    -617.1384008
C           0.4667035     0.3489429     0.1927690
H           0.7727436     0.4388557     1.2444761
C          -0.6889736     1.3105374    -0.0786974
H          -0.3884000     2.3376016     0.1517258
H          -1.5566846     1.0457045     0.5339951
H          -0.9846792     1.2637099    -1.1318163
O           1.5580171     0.7918117    -0.6435351
C           5.4284195    -0.3314702     0.4505708
H           6.4416799    -0.6128497     0.7235882
C           4.7809708    -0.9768511    -0.6048149
H           5.2888422    -1.7650404    -1.1545336
C           3.4787482    -0.6203115    -0.9593151
H           2.9613872    -1.1154221    -1.7742107
C           2.8251107     0.3953183    -0.2575486
C           3.4701941     1.0493709     0.7973180
H           2.9549826     1.8507567     1.3195598
C           4.7691755     0.6822886     1.1497042
H           5.2699467     1.1962089     1.9661606
C          -0.6774126    -3.7517697    -0.5926556
H          -0.9746384    -4.7782833    -0.7901715
C          -0.5125274    -3.3095368     0.7198884
H          -0.6773749    -3.9908465     1.5505439
C          -0.1244972    -1.9911168     0.9694545
H           0.0117269    -1.6535452     1.9948678
C           0.0951221    -1.0989682    -0.0845096
C          -0.0712002    -1.5526599    -1.4002186
H           0.1129154    -0.8691978    -2.2246957
C          -0.4526381    -2.8694717    -1.6530474
H          -0.5749201    -3.2091260    -2.6783930
29
381_C14H14O_0-6-13-11 (120,) energy =    -617.1386450
C           0.4536183     0.3761603     0.1619121
H           0.7300510     0.5125098     1.2158588
C          -0.6889294     1.3297617    -0.1827702
H          -0.3880273     2.3650219     0.0070812
H          -1.5728489     1.0980264     0.4200486
H          -0.9589526     1.2350013    -1.2394983
O           1.5640116     0.7710505    -0.6715025
C           5.4373519    -0.3610822     0.4016149
H           6.4521081    -0.6457097     0.6651929
C           4.8750944    -0.7934890    -0.8010162
H           5.4507562    -1.4198509    -1.4775128
C           3.5701942    -0.4342375    -1.1399269
H           3.1167140    -0.7673418    -2.0678166
C           2.8247649     0.3725129    -0.2764329
C           3.3864069     0.8184648     0.9252953
H           2.8134114     1.4689549     1.5799881
C           4.6880555     0.4452892     1.2611554
H           5.1212497     0.7968207     2.1940459
C          -0.6739712    -3.7564578    -0.4611665
H          -0.9656940    -4.7914908    -0.6183191
C          -0.5532048    -3.2505828     0.8331224
H          -0.7473444    -3.8904419     1.6899904
C          -0.1716890    -1.9216573     1.0307766
H          -0.0700551    -1.5343817     2.0425842
C           0.0850364    -1.0823175    -0.0577098
C          -0.0365638    -1.5997056    -1.3543303
H           0.1766016    -0.9576622    -2.2045330
C          -0.4116519    -2.9272187    -1.5550355
H          -0.4988798    -3.3169334    -2.5660469
29
381_C14H14O_0-6-13-11 (135,) energy =    -617.1388891
C           0.4131898     0.4519526     0.1358127
H           0.6125731     0.6685316     1.1932659
C          -0.7298720     1.3488885    -0.3378723
H          -0.4630722     2.4023925    -0.2062465
H          -1.6394494     1.1368896     0.2328937
H          -0.9384461     1.1723042    -1.3979005
O           1.5532058     0.8322349    -0.6593771
C           5.4082902    -0.4642146     0.2909853
H           6.4188651    -0.7915614     0.5180101
C           4.9207125    -0.5333082    -1.0159449
H           5.5511035    -0.9178148    -1.8135658
C           3.6210593    -0.1218822    -1.3068358
H           3.2255064    -0.1735172    -2.3163696
C           2.8009271     0.3778328    -0.2901778
C           3.2859368     0.4572611     1.0201283
H           2.6641523     0.8606448     1.8129805
C           4.5849333     0.0316621     1.3028665
H           4.9554171     0.0975406     2.3226928
C          -0.5909566    -3.7379631    -0.2717752
H          -0.8527954    -4.7875981    -0.3754767
C          -0.5947526    -3.1352412     0.9862982
H          -0.8568992    -3.7136122     1.8683828
C          -0.2501615    -1.7882533     1.1160290
H          -0.2456100    -1.3250502     2.1007324
C           0.0921230    -1.0268976    -0.0059395
C           0.0947502    -1.6407161    -1.2652690
H           0.3739205    -1.0591418    -2.1392974
C          -0.2423335    -2.9869215    -1.3973091
H          -0.2318104    -3.4522300    -2.3796000
29
381_C14H14O_0-6-13-11 (150,) energy =    -617.1398815
C           0.3873221     0.5051749     0.1093148
H           0.5400566     0.7950200     1.1581029
C          -0.7582793     1.3442212    -0.4580387
H          -0.5149315     2.4094062    -0.3910800
H          -1.6797669     1.1532325     0.1007463
H          -0.9314842     1.0905271    -1.5086620
O           1.5408499     0.8752609    -0.6647854
C           5.3828105    -0.5199207     0.1841403
H           6.3911505    -0.8717602     0.3822246
C           4.9807087    -0.2239809    -1.1211059
H           5.6757544    -0.3464870    -1.9478178
C           3.6851649     0.2176836    -1.3767426
H           3.3556103     0.4481235    -2.3852711
C           2.7794908     0.3871340    -0.3221436
C           3.1726686     0.0865227     0.9865976
H           2.4808980     0.1986867     1.8139554
C           4.4724174    -0.3642508     1.2289223
H           4.7700101    -0.5949242     2.2486623
C          -0.5476920    -3.7151109    -0.0859849
H          -0.7946973    -4.7721454    -0.1374465
C          -0.6680740    -3.0248287     1.1204797
H          -1.0072902    -3.5418379     2.0143106
C          -0.3416304    -1.6688770     1.1842155
H          -0.4295344    -1.1368566     2.1296598
C           0.0983909    -0.9856452     0.0458609
C           0.2162879    -1.6861295    -1.1612925
H           0.5713979    -1.1653032    -2.0458367
C          -0.1017169    -3.0420289    -1.2261018
H           0.0000547    -3.5754077    -2.1676595
29
381_C14H14O_0-6-13-11 (165,) energy =    -617.1410968
C           0.7476340    -0.9799253     1.3733989
H           1.3176846    -1.8072800     1.8193052
C          -0.3567548    -0.5719812     2.3504601
H           0.0791098    -0.2655386     3.3066715
H          -1.0389691    -1.4103949     2.5219042
H          -0.9326604     0.2651036     1.9432780
O           1.5938581     0.1727954     1.2624620
C           5.2889662     0.1537697    -0.6764614
H           6.2538784     0.1776133    -1.1745217
C           4.6256211     1.3430250    -0.3588493
H           5.0731862     2.3010951    -0.6104885
C           3.3866796     1.3131054     0.2734601
H           2.8579696     2.2269890     0.5269227
C           2.7982925     0.0861833     0.6104463
C           3.4499068    -1.1090145     0.2861648
H           3.0002206    -2.0687835     0.5110791
C           4.6922783    -1.0633064    -0.3529988
H           5.1907623    -1.9968143    -0.6014723
C          -0.9685603    -2.2655767    -2.3853018
H          -1.4125036    -2.5894683    -3.3228136
C          -0.6153358    -3.2051151    -1.4157373
H          -0.7811162    -4.2642712    -1.5946737
C          -0.0378038    -2.7860492    -0.2161084
H           0.2426858    -3.5233726     0.5340612
C           0.1861803    -1.4274587     0.0325559
C          -0.1720453    -0.4910434    -0.9446904
H           0.0112353     0.5638780    -0.7631490
C          -0.7426180    -0.9079902    -2.1470542
H          -1.0099619    -0.1715674    -2.9004332
29
381_C14H14O_0-6-13-11 (180,) energy =    -617.1418634
C           0.7680994    -0.9358750     1.2966025
H           1.3885590    -1.7292734     1.7371060
C          -0.3088587    -0.5364498     2.3076749
H           0.1541510    -0.1954932     3.2390922
H          -0.9599029    -1.3891249     2.5241600
H          -0.9239736     0.2741051     1.9040852
O           1.5700587     0.2377168     1.1162393
C           5.3772922     0.1999028    -0.5886933
H           6.3718752     0.2194566    -1.0246808
C           4.7752380     1.3813128    -0.1433975
H           5.3014442     2.3284726    -0.2301882
C           3.5010869     1.3577446     0.4134150
H           3.0211439     2.2648498     0.7679889
C           2.8094673     0.1439098     0.5372092
C           3.3995188    -1.0419435     0.0851612
H           2.8706168    -1.9856844     0.1398952
C           4.6817679    -1.0014375    -0.4714909
H           5.1315788    -1.9270709    -0.8215129
C          -1.0718694    -2.3784002    -2.3465539
H          -1.5463543    -2.7411279    -3.2544137
C          -0.7149996    -3.2727295    -1.3360906
H          -0.9090247    -4.3356684    -1.4537199
C          -0.0988093    -2.8038937    -0.1748778
H           0.1834611    -3.5065625     0.6072931
C           0.1620173    -1.4391084    -0.0057286
C          -0.1995802    -0.5484250    -1.0230399
H           0.0118116     0.5097863    -0.9021670
C          -0.8099407    -1.0160311    -2.1871035
H          -1.0797575    -0.3147581    -2.9724611
