29
381_C14H14O_6-0-24-25 (-165,) energy =    -617.1381317
C           0.8575035    -0.5208467     0.3424104
H           1.1831290    -0.8931443     1.3240631
C           0.2843761     0.8937033     0.4906695
H           1.0592372     1.5830689     0.8383905
H          -0.5373245     0.9207014     1.2125313
H          -0.0880469     1.2479513    -0.4753183
O           1.9931709    -0.4821347    -0.5333816
C           5.8419038     0.6223771     0.6412512
H           6.8544933     0.9016113     0.9171273
C           4.8266396     0.6158430     1.5943552
H           5.0436113     0.8923948     2.6229808
C           3.5172884     0.2611789     1.2526758
H           2.7496186     0.2739332     2.0174882
C           3.2220129    -0.0985729    -0.0684756
C           4.2420473    -0.0889844    -1.0324895
H           3.9912584    -0.3673366    -2.0515094
C           5.5379356     0.2676423    -0.6773848
H           6.3165924     0.2678516    -1.4357477
C          -1.9610403    -3.4172705    -1.2466522
H          -2.6665914    -4.1455288    -1.6375952
C          -0.6433802    -3.3948047    -1.7035373
H          -0.3158894    -4.1077057    -2.4559557
C           0.2632292    -2.4594513    -1.2019534
H           1.2841659    -2.4425945    -1.5643770
C          -0.1337073    -1.5265183    -0.2361406
C          -1.4604999    -1.5561816     0.2164525
H          -1.7977398    -0.8504037     0.9700904
C          -2.3652105    -2.4940583    -0.2814426
H          -3.3885225    -2.4992645     0.0848854
29
381_C14H14O_6-0-24-25 (-150,) energy =    -617.1378122
C           0.8505395    -0.5291650     0.3827308
H           1.2205849    -0.9658215     1.3215067
C           0.2794839     0.8639049     0.6599653
H           1.0751293     1.5377017     0.9897134
H          -0.4802619     0.8349264     1.4473816
H          -0.1702346     1.2779053    -0.2477440
O           1.9534694    -0.4261849    -0.5339458
C           5.8399524     0.6262118     0.5623192
H           6.8613603     0.8934299     0.8167887
C           4.8628546     0.5498807     1.5515406
H           5.1187381     0.7591837     2.5870997
C           3.5424446     0.2100523     1.2380815
H           2.8053911     0.1671975     2.0314301
C           3.1970916    -0.0635383    -0.0916886
C           4.1788222     0.0165548    -1.0917580
H           3.8888040    -0.1961304    -2.1161398
C           5.4860819     0.3576153    -0.7643141
H           6.2345375     0.4131633    -1.5505663
C          -1.9299654    -3.4183856    -1.2811375
H          -2.6202289    -4.1516807    -1.6895718
C          -0.5599453    -3.5262494    -1.5274261
H          -0.1774133    -4.3452235    -2.1311694
C           0.3255262    -2.5851895    -1.0038654
H           1.3875851    -2.6675143    -1.2070492
C          -0.1410632    -1.5151018    -0.2274167
C          -1.5172684    -1.4149713     0.0125287
H          -1.9119689    -0.5982711     0.6085204
C          -2.4044930    -2.3593926    -0.5082969
H          -3.4687762    -2.2608902    -0.3108614
29
381_C14H14O_6-0-24-25 (-135,) energy =    -617.1377230
C           0.8528956    -0.5583956     0.4301151
H           1.2620162    -1.0425743     1.3281724
C           0.2805864     0.8076097     0.8076941
H           1.0760419     1.4602001     1.1774989
H          -0.4737058     0.7162416     1.5961908
H          -0.1760971     1.2859947    -0.0643338
O           1.9223505    -0.3963862    -0.5219025
C           5.8367249     0.6417625     0.4865215
H           6.8642693     0.9069952     0.7173147
C           4.8978368     0.5021782     1.5053901
H           5.1899696     0.6594471     2.5405956
C           3.5699536     0.1643449     1.2227903
H           2.8636940     0.0710415     2.0395346
C           3.1775798    -0.0425043    -0.1061577
C           4.1211383     0.1008715    -1.1356834
H           3.7950927    -0.0620856    -2.1583077
C           5.4363190     0.4391287    -0.8386706
H           6.1545181     0.5444022    -1.6477541
C          -1.9061242    -3.4096311    -1.3240477
H          -2.5878579    -4.1362402    -1.7579715
C          -0.5275362    -3.6366119    -1.3479644
H          -0.1314001    -4.5410197    -1.8024469
C           0.3451379    -2.7046565    -0.7912562
H           1.4162994    -2.8791281    -0.8234450
C          -0.1397212    -1.5273520    -0.2022383
C          -1.5210434    -1.3083868    -0.1861838
H          -1.9270804    -0.4057903     0.2586928
C          -2.3989738    -2.2435696    -0.7415854
H          -3.4689122    -2.0535887    -0.7198278
29
381_C14H14O_6-0-24-25 (-120,) energy =    -617.1375558
C           0.8539656    -0.5897630     0.4753490
H           1.3022181    -1.1145687     1.3300044
C           0.2792794     0.7451416     0.9447204
H           1.0688202     1.3665091     1.3759190
H          -0.4915172     0.5941479     1.7080275
H          -0.1579307     1.2923493     0.1038495
O           1.8853737    -0.3639387    -0.5085291
C           5.8237819     0.6706768     0.4063459
H           6.8563769     0.9367920     0.6123075
C           4.9261308     0.4641412     1.4507161
H           5.2558399     0.5696863     2.4812172
C           3.5923250     0.1244127     1.2002389
H           2.9189481    -0.0219213     2.0368167
C           3.1514131    -0.0161651    -0.1222201
C           4.0536016     0.1943168    -1.1771710
H           3.6907324     0.0807657    -2.1940259
C           5.3752261     0.5337353    -0.9118489
H           6.0608446     0.6914239    -1.7404749
C          -1.8945548    -3.3925499    -1.3641227
H          -2.5720475    -4.1074820    -1.8233777
C          -0.5501516    -3.7224562    -1.1702027
H          -0.1769070    -4.6953185    -1.4792436
C           0.3144085    -2.8050179    -0.5789682
H           1.3613121    -3.0612632    -0.4384026
C          -0.1425496    -1.5427274    -0.1719091
C          -1.4877261    -1.2213932    -0.3741790
H          -1.8700805    -0.2519567    -0.0715722
C          -2.3595352    -2.1411954    -0.9645942
H          -3.4024867    -1.8735578    -1.1125350
29
381_C14H14O_6-0-24-25 (-105,) energy =    -617.1373772
C           0.8647163    -0.6262696     0.5227478
H           1.3505843    -1.1911144     1.3290511
C           0.2853516     0.6693523     1.0877228
H           1.0691498     1.2584675     1.5717195
H          -0.4939279     0.4574669     1.8276510
H          -0.1437749     1.2813923     0.2887034
O           1.8565157    -0.3288160    -0.4842961
C           5.8122520     0.7110157     0.3457560
H           6.8481528     0.9806808     0.5293205
C           4.9538676     0.4404018     1.4083664
H           5.3180106     0.4991707     2.4309928
C           3.6163723     0.0952706     1.1867274
H           2.9741253    -0.1018424     2.0373011
C           3.1311986     0.0148515    -0.1252545
C           3.9939973     0.2892501    -1.1984575
H           3.5976892     0.2205582    -2.2068024
C           5.3198259     0.6332373    -0.9615650
H           5.9744264     0.8409343    -1.8041568
C          -1.8958615    -3.3646936    -1.3901471
H          -2.5770132    -4.0621267    -1.8704460
C          -0.6263894    -3.7868342    -0.9868445
H          -0.3144820    -4.8147299    -1.1520913
C           0.2406300    -2.8897184    -0.3673721
H           1.2297406    -3.2202178    -0.0585892
C          -0.1383419    -1.5589306    -0.1407143
C          -1.4094634    -1.1464203    -0.5516406
H          -1.7309585    -0.1224348    -0.3903029
C          -2.2836815    -2.0436822    -1.1707617
H          -3.2688671    -1.7059887    -1.4815481
29
381_C14H14O_6-0-24-25 (-90,) energy =    -617.1375228
C           0.8902356    -0.6768944     0.5418870
H           1.4100776    -1.2760674     1.3001118
C           0.2986645     0.5701323     1.1991179
H           1.0807293     1.1477121     1.7000373
H          -0.4574290     0.2925143     1.9413280
H          -0.1657241     1.2213284     0.4528750
O           1.8444477    -0.3010294    -0.4755939
C           5.8055956     0.7653600     0.2919293
H           6.8419280     1.0439319     0.4590401
C           4.9837731     0.4258387     1.3636273
H           5.3770765     0.4392728     2.3770295
C           3.6462427     0.0682657     1.1631667
H           3.0331121    -0.1830786     2.0209061
C           3.1233290     0.0456974    -0.1365942
C           3.9495476     0.3890404    -1.2187993
H           3.5249220     0.3635938    -2.2175873
C           5.2758672     0.7446892    -1.0029026
H           5.9017061     1.0061954    -1.8523503
C          -1.9043773    -3.3461934    -1.4156528
H          -2.5972675    -4.0244042    -1.9065754
C          -0.7485179    -3.8407505    -0.8084980
H          -0.5363195    -4.9065025    -0.8238039
C           0.1343171    -2.9659191    -0.1766607
H           1.0346048    -3.3549770     0.2939467
C          -0.1174840    -1.5883182    -0.1403539
C          -1.2787380    -1.1037523    -0.7530432
H          -1.4981738    -0.0406121    -0.7432639
C          -2.1657592    -1.9758482    -1.3866078
H          -3.0629252    -1.5824628    -1.8573018
29
381_C14H14O_6-0-24-25 (-75,) energy =    -617.1382117
C           0.9411216    -0.7632136     0.5281352
H           1.4932665    -1.3912699     1.2384515
C           0.3310568     0.4280077     1.2699965
H           1.1085128     1.0183703     1.7637603
H          -0.3769127     0.0797772     2.0297337
H          -0.2010753     1.0873145     0.5780129
O           1.8568583    -0.3118835    -0.4923583
C           5.7915301     0.8712880     0.2366153
H           6.8202858     1.1816915     0.3941371
C           5.0103427     0.4456636     1.3080219
H           5.4281673     0.4228953     2.3113907
C           3.6830468     0.0458673     1.1201063
H           3.1013588    -0.2737014     1.9770453
C           3.1291801     0.0692509    -0.1666757
C           3.9142346     0.4990434    -1.2485599
H           3.4662063     0.5074464    -2.2373664
C           5.2310439     0.8951256    -1.0451404
H           5.8251493     1.2236558    -1.8940923
C          -1.9424935    -3.3256289    -1.4381151
H          -2.6658150    -3.9722103    -1.9278214
C          -0.9365638    -3.8732507    -0.6416840
H          -0.8711467    -4.9496918    -0.5073064
C          -0.0111165    -3.0373628    -0.0147219
H           0.7726875    -3.4695470     0.6034716
C          -0.0755684    -1.6483043    -0.1710093
C          -1.0914142    -1.1089194    -0.9709419
H          -1.1547128    -0.0342447    -1.1148938
C          -2.0152003    -1.9406378    -1.6029948
H          -2.7945026    -1.5066765    -2.2239645
29
381_C14H14O_6-0-24-25 (-60,) energy =    -617.1391133
C           0.9976055    -0.8566991     0.5306868
H           1.5759544    -1.5111302     1.1951064
C           0.3788824     0.2858694     1.3424557
H           1.1521118     0.8910570     1.8251648
H          -0.2826453    -0.1171150     2.1169085
H          -0.2117928     0.9394214     0.6931651
O           1.8732681    -0.3389634    -0.4899152
C           5.7694423     0.9833493     0.2048123
H           6.7874948     1.3311903     0.3533774
C           5.0398993     0.4588590     1.2688084
H           5.4878141     0.3954004     2.2573168
C           3.7270089     0.0097135     1.0921808
H           3.1859244    -0.3886757     1.9426293
C           3.1351301     0.0845823    -0.1754749
C           3.8677287     0.6139568    -1.2496572
H           3.3910006     0.6606161    -2.2238849
C           5.1712049     1.0573480    -1.0577404
H           5.7249174     1.4629235    -1.9006342
C          -2.0026491    -3.2765020    -1.4319586
H          -2.7621191    -3.8824260    -1.9188999
C          -1.1672304    -3.8397011    -0.4677927
H          -1.2708691    -4.8878134    -0.1998239
C          -0.1902167    -3.0576120     0.1523583
H           0.4626255    -3.5031358     0.8998444
C          -0.0392973    -1.7074775    -0.1776917
C          -0.8857142    -1.1492079    -1.1453264
H          -0.7681696    -0.1055410    -1.4231087
C          -1.8562981    -1.9288776    -1.7718086
H          -2.5008496    -1.4850860    -2.5260631
29
381_C14H14O_6-0-24-25 (-45,) energy =    -617.1396603
C           1.0371888    -0.9191976     0.5290813
H           1.6489272    -1.5974052     1.1375957
C           0.4130417     0.1613880     1.4211224
H           1.1826517     0.7613889     1.9164300
H          -0.2181994    -0.2994226     2.1884762
H          -0.2116079     0.8279876     0.8180645
O           1.8646747    -0.3187656    -0.4819443
C           5.7476656     1.0588620     0.1742219
H           6.7612478     1.4231006     0.3136481
C           5.0634928     0.4548568     1.2261609
H           5.5426296     0.3453363     2.1957891
C           3.7568844    -0.0164831     1.0615580
H           3.2508077    -0.4774425     1.9018421
C           3.1257719     0.1172728    -0.1818672
C           3.8120548     0.7268051    -1.2438021
H           3.3051926     0.8181433    -2.1994868
C           5.1099548     1.1912380    -1.0639499
H           5.6280456     1.6591788    -1.8970909
C          -2.0392076    -3.2378641    -1.4358393
H          -2.8206768    -3.8160947    -1.9216392
C          -1.3647957    -3.7581394    -0.3312031
H          -1.6160791    -4.7455139     0.0471149
C          -0.3565817    -3.0143200     0.2854032
H           0.1717739    -3.4295853     1.1411433
C          -0.0158427    -1.7432511    -0.1875132
C          -0.6989052    -1.2269834    -1.2962979
H          -0.4266796    -0.2484051    -1.6800475
C          -1.7003384    -1.9712431    -1.9184465
H          -2.2173087    -1.5625207    -2.7827858
29
381_C14H14O_6-0-24-25 (-30,) energy =    -617.1397332
C           1.0674823    -0.9614057     0.5230088
H           1.7111189    -1.6652309     1.0666117
C           0.4559031     0.0499878     1.5027393
H           1.2323070     0.6331989     2.0075662
H          -0.1405549    -0.4676481     2.2614277
H          -0.2000376     0.7384376     0.9605525
O           1.8469926    -0.2812473    -0.4705884
C           5.7339764     1.1070929     0.1364617
H           6.7472960     1.4764793     0.2636000
C           5.0946585     0.4286795     1.1711254
H           5.6088706     0.2656784     2.1148944
C           3.7889790    -0.0502930     1.0221388
H           3.3182838    -0.5699351     1.8485535
C           3.1132100     0.1519223    -0.1880007
C           3.7537778     0.8367925    -1.2321929
H           3.2128624     0.9813101    -2.1623301
C           5.0514807     1.3076648    -1.0681299
H           5.5340206     1.8344259    -1.8873546
C          -2.0604987    -3.2114313    -1.4444795
H          -2.8540773    -3.7741359    -1.9288297
C          -1.5379545    -3.6424181    -0.2240304
H          -1.9201488    -4.5448266     0.2458986
C          -0.5142604    -2.9207683     0.3907477
H          -0.1045713    -3.2680568     1.3373818
C          -0.0042801    -1.7586195    -0.1996460
C          -0.5317514    -1.3328621    -1.4240484
H          -0.1291692    -0.4424501    -1.8950395
C          -1.5519431    -2.0569959    -2.0423663
H          -1.9488035    -1.7185970    -2.9960425
29
381_C14H14O_6-0-24-25 (-15,) energy =    -617.1394876
C           1.0775426    -0.9854340     0.5308035
H           1.7515119    -1.7104865     1.0062403
C           0.4873059    -0.0470538     1.5932613
H           1.2751857     0.5133504     2.1059925
H          -0.0763395    -0.6161255     2.3396908
H          -0.1936241     0.6649588     1.1165000
O           1.8114382    -0.2281558    -0.4381086
C           5.7129461     1.1437573     0.1102430
H           6.7287535     1.5110606     0.2226405
C           5.1171730     0.3941855     1.1215224
H           5.6680843     0.1732418     2.0321873
C           3.8088737    -0.0831814     0.9913247
H           3.3725939    -0.6585940     1.7994171
C           3.0863940     0.1930198    -0.1763501
C           3.6825925     0.9503840    -1.1963548
H           3.1054863     1.1532552    -2.0932832
C           4.9834675     1.4187734    -1.0512875
H           5.4314122     2.0020736    -1.8516155
C          -2.0574404    -3.2026296    -1.4701434
H          -2.8492602    -3.7615616    -1.9616286
C          -1.6865124    -3.5153913    -0.1605215
H          -2.1852529    -4.3211608     0.3717406
C          -0.6675434    -2.7992525     0.4659061
H          -0.3777025    -3.0560252     1.4830947
C          -0.0077545    -1.7591033    -0.2020750
C          -0.3799701    -1.4551694    -1.5152760
H           0.1358021    -0.6615135    -2.0433881
C          -1.3998404    -2.1732662    -2.1436751
H          -1.6775022    -1.9269632    -3.1653649
29
381_C14H14O_6-0-24-25 (0,) energy =    -617.1389305
C           1.0818206    -0.9906320     0.5522450
H           1.7830708    -1.7329817     0.9571949
C           0.5307558    -0.1182080     1.6887688
H           1.3390391     0.4194169     2.1937122
H           0.0052967    -0.7253942     2.4323353
H          -0.1728469     0.6139082     1.2806677
O           1.7715260    -0.1648821    -0.3930251
C           5.6980740     1.1684135     0.0672212
H           6.7188584     1.5279407     0.1574311
C           5.1466410     0.3540970     1.0532036
H           5.7373488     0.0743258     1.9217728
C           3.8324737    -0.1140990     0.9515123
H           3.4316703    -0.7403992     1.7398800
C           3.0589326     0.2370800    -0.1620754
C           3.6101846     1.0604751    -1.1558130
H           2.9932519     1.3229180    -2.0097871
C           4.9173962     1.5191172    -1.0393132
H           5.3299462     2.1543424    -1.8188626
C          -2.0417497    -3.1838656    -1.5063197
H          -2.8242100    -3.7403496    -2.0152915
C          -1.8258783    -3.3640512    -0.1383840
H          -2.4375070    -4.0653249     0.4232894
C          -0.8215673    -2.6484620     0.5116043
H          -0.6582205    -2.8077899     1.5751186
C          -0.0182040    -1.7386355    -0.1906372
C          -0.2320528    -1.5736462    -1.5627648
H           0.3925308    -0.8826110    -2.1160309
C          -1.2404237    -2.2884291    -2.2136390
H          -1.3953143    -2.1444504    -3.2798948
29
381_C14H14O_6-0-24-25 (15,) energy =    -617.1382333
C           1.0843847    -1.0152503     0.5795505
H           1.8134868    -1.7687066     0.9091307
C           0.5845049    -0.2139008     1.7879531
H           1.4113005     0.3311135     2.2527987
H           0.1422856    -0.8660803     2.5469760
H          -0.1714617     0.5091256     1.4668486
O           1.7268136    -0.1265434    -0.3447491
C           5.6658949     1.2029315     0.0120839
H           6.6883311     1.5634307     0.0759063
C           5.1636768     0.3300199     0.9738888
H           5.7949253     0.0049054     1.7969659
C           3.8479395    -0.1401437     0.9059741
H           3.4865923    -0.8127364     1.6750517
C           3.0223689     0.2689328    -0.1490499
C           3.5240061     1.1518946    -1.1177976
H           2.8665727     1.4596338    -1.9251744
C           4.8334208     1.6115568    -1.0352946
H           5.2069460     2.2933625    -1.7949264
C          -2.0291299    -3.1718423    -1.5423501
H          -2.8031237    -3.7218202    -2.0709699
C          -1.9741260    -3.1979483    -0.1480186
H          -2.7045773    -3.7713442     0.4168357
C          -0.9822074    -2.4885225     0.5289507
H          -0.9540939    -2.5293653     1.6142624
C          -0.0281499    -1.7383547    -0.1735507
C          -0.0833755    -1.7295252    -1.5723838
H           0.6518069    -1.1580605    -2.1262856
C          -1.0790146    -2.4357070    -2.2498332
H          -1.1085140    -2.4095837    -3.3361440
29
381_C14H14O_6-0-24-25 (30,) energy =    -617.1378422
C           1.1012740    -1.0557744     0.6020912
H           1.8556462    -1.8148184     0.8541799
C           0.6531328    -0.3379934     1.8785063
H           1.4873320     0.2250408     2.3063161
H           0.3067465    -1.0475185     2.6364133
H          -0.1583291     0.3613493     1.6549831
O           1.6956357    -0.1077341    -0.2998897
C           5.6330224     1.2491630    -0.0362081
H           6.6536332     1.6182008     0.0037399
C           5.1820477     0.3177994     0.8956209
H           5.8519037    -0.0449198     1.6711105
C           3.8691697    -0.1640069     0.8582957
H           3.5487221    -0.8826727     1.6034870
C           2.9941262     0.2929457    -0.1356015
C           3.4443743     1.2348990    -1.0738255
H           2.7487539     1.5783237    -1.8333609
C           4.7514160     1.7054859    -1.0220172
H           5.0846406     2.4332307    -1.7574098
C          -2.0172434    -3.1457152    -1.5787619
H          -2.7887175    -3.6805000    -2.1263371
C          -2.1152717    -2.9898044    -0.1965187
H          -2.9650392    -3.4025191     0.3410282
C          -1.1258685    -2.2989444     0.5058523
H          -1.2259851    -2.1901568     1.5812019
C          -0.0211285    -1.7531599    -0.1606825
C           0.0705145    -1.9206550    -1.5493459
H           0.9167293    -1.4964800    -2.0780839
C          -0.9194637    -2.6069902    -2.2518920
H          -0.8319193    -2.7198733    -3.3294632
29
381_C14H14O_6-0-24-25 (45,) energy =    -617.1377403
C           1.1259146    -1.1037331     0.6172920
H           1.9010213    -1.8633157     0.7923753
C           0.7257007    -0.4719592     1.9506947
H           1.5773861     0.0564676     2.3875184
H           0.3989056    -1.2325892     2.6673280
H          -0.0857859     0.2477709     1.8048552
O           1.6700934    -0.0974273    -0.2581660
C           5.5939263     1.3120206    -0.0755749
H           6.6095226     1.6962536    -0.0558014
C           5.1956652     0.3230711     0.8202299
H           5.9021465    -0.0699481     1.5469557
C           3.8898289    -0.1788785     0.8086254
H           3.6114440    -0.9432493     1.5247407
C           2.9676891     0.3167205    -0.1223788
C           3.3652433     1.3162557    -1.0243778
H           2.6339549     1.6874289    -1.7357671
C           4.6659143     1.8061107    -0.9986972
H           4.9577197     2.5787993    -1.7053123
C          -2.0172860    -3.0990689    -1.6099417
H          -2.7936710    -3.6097118    -2.1733976
C          -2.2315061    -2.7482511    -0.2783983
H          -3.1773662    -2.9821546     0.2032410
C          -1.2341097    -2.0891681     0.4455241
H          -1.4256310    -1.8232960     1.4799968
C          -0.0084866    -1.7732313    -0.1503698
C           0.1970373    -2.1329213    -1.4906478
H           1.1391474    -1.8816703    -1.9679050
C          -0.7969570    -2.7872671    -2.2147688
H          -0.6195166    -3.0536602    -3.2535121
29
381_C14H14O_6-0-24-25 (60,) energy =    -617.1375633
C           1.1531446    -1.1580271     0.6372607
H           1.9472317    -1.9108092     0.7348038
C           0.7976354    -0.6138133     2.0194152
H           1.6742069    -0.1504185     2.4801874
H           0.4485636    -1.4150001     2.6795143
H           0.0154738     0.1478045     1.9429991
O           1.6423605    -0.0909665    -0.2023320
C           5.5465640     1.3808625    -0.1034720
H           6.5555211     1.7827200    -0.1041854
C           5.2043999     0.3334395     0.7479776
H           5.9483557    -0.0879067     1.4193787
C           3.9078388    -0.1918339     0.7621312
H           3.6742237    -1.0021655     1.4429329
C           2.9372656     0.3394718    -0.0973969
C           3.2787488     1.3975836    -0.9546800
H           2.5111675     1.7945991    -1.6117587
C           4.5709079     1.9100804    -0.9552838
H           4.8186530     2.7282571    -1.6266818
C          -2.0245528    -3.0570877    -1.6185959
H          -2.8095052    -3.5417378    -2.1930565
C          -2.3066173    -2.5069124    -0.3698772
H          -3.3139324    -2.5584622     0.0349957
C          -1.2969424    -1.8834365     0.3692774
H          -1.5391633    -1.4613976     1.3392206
C           0.0064462    -1.8038727    -0.1294575
C           0.2793076    -2.3631816    -1.3867628
H           1.2870233    -2.2993802    -1.7890419
C          -0.7245884    -2.9821056    -2.1269208
H          -0.4939818    -3.4081654    -3.0998266
29
381_C14H14O_6-0-24-25 (75,) energy =    -617.1373729
C           1.1865590    -1.2104335     0.6274573
H           1.9970300    -1.9505542     0.6511644
C           0.8689952    -0.7592220     2.0519615
H           1.7644979    -0.3566364     2.5332615
H           0.5013864    -1.5979820     2.6528199
H           0.1115967     0.0303725     2.0478061
O           1.6231946    -0.0844332    -0.1646558
C           5.5014330     1.4564351    -0.1232158
H           6.5023813     1.8776406    -0.1369174
C           5.2076135     0.3604877     0.6841105
H           5.9816840    -0.0796533     1.3077395
C           3.9219610    -0.1902386     0.7144649
H           3.7261758    -1.0388028     1.3597724
C           2.9128753     0.3649769    -0.0833836
C           3.2059143     1.4712546    -0.8968648
H           2.4095217     1.8852633    -1.5075067
C           4.4878132     2.0085627    -0.9140376
H           4.6977960     2.8641624    -1.5507999
C          -2.0352811    -3.0089516    -1.6445395
H          -2.8331683    -3.4644548    -2.2250079
C          -2.3348813    -2.2577210    -0.5088513
H          -3.3684604    -2.1229545    -0.2009427
C          -1.3095456    -1.6734700     0.2392419
H          -1.5640828    -1.0927097     1.1200737
C           0.0276952    -1.8351247    -0.1359311
C           0.3165061    -2.5924707    -1.2798558
H           1.3526463    -2.7199610    -1.5851049
C          -0.7026233    -3.1743922    -2.0304026
H          -0.4582428    -3.7593354    -2.9131601
29
381_C14H14O_6-0-24-25 (90,) energy =    -617.1375749
C           1.2244827    -1.2653678     0.6195017
H           2.0482257    -1.9889304     0.5742817
C           0.9421593    -0.9089080     2.0792770
H           1.8434543    -0.5202215     2.5617501
H           0.6053503    -1.7921652     2.6325325
H           0.1705952    -0.1367422     2.1502164
O           1.6120845    -0.0855220    -0.1184252
C           5.4605054     1.5292280    -0.1238267
H           6.4522964     1.9711054    -0.1485711
C           5.2143602     0.3876152     0.6346862
H           6.0171163    -0.0678615     1.2091190
C           3.9410041    -0.1900482     0.6781277
H           3.7833726    -1.0742001     1.2849401
C           2.8951086     0.3842918    -0.0564421
C           3.1404134     1.5362945    -0.8209255
H           2.3166199     1.9641983    -1.3837633
C           4.4106675     2.0999878    -0.8516099
H           4.5831242     2.9909948    -1.4499299
C          -2.0542901    -2.9724273    -1.6378296
H          -2.8695618    -3.4010373    -2.2146031
C          -2.3185452    -2.0289886    -0.6440519
H          -3.3409418    -1.7176743    -0.4465127
C          -1.2728951    -1.4798261     0.0997400
H          -1.4966726    -0.7433252     0.8653376
C           0.0510489    -1.8682492    -0.1356603
C           0.3040383    -2.8102415    -1.1410064
H           1.3296472    -3.1132805    -1.3401075
C          -0.7370261    -3.3620056    -1.8867683
H          -0.5203080    -4.0950420    -2.6593057
29
381_C14H14O_6-0-24-25 (105,) energy =    -617.1382818
C           1.2575638    -1.3154011     0.5860248
H           2.0896378    -2.0220972     0.4761670
C           1.0040131    -1.0547536     2.0725485
H           1.8994174    -0.6538229     2.5566900
H           0.7218123    -1.9847440     2.5777555
H           0.1964652    -0.3292828     2.2083518
O           1.6036235    -0.0897567    -0.0925861
C           5.4135364     1.6124577    -0.0725953
H           6.3947156     2.0777828    -0.0889711
C           5.2056098     0.4270200     0.6279747
H           6.0277828    -0.0395033     1.1648395
C           3.9464688    -0.1815977     0.6601046
H           3.8179976    -1.1001537     1.2209417
C           2.8761867     0.4067420    -0.0265371
C           3.0827483     1.6025726    -0.7327769
H           2.2405098     2.0403798    -1.2595528
C           4.3394665     2.1962833    -0.7531094
H           4.4822079     3.1211798    -1.3060950
C          -2.1050752    -2.9418496    -1.6010574
H          -2.9457052    -3.3493547    -2.1563561
C          -2.2834997    -1.8314728    -0.7726774
H          -3.2634145    -1.3695006    -0.6855469
C          -1.2065859    -1.3098999    -0.0566992
H          -1.3551720    -0.4380353     0.5738104
C           0.0642768    -1.8913727    -0.1551731
C           0.2348703    -2.9930905    -1.0006414
H           1.2198898    -3.4441786    -1.0984033
C          -0.8413968    -3.5215626    -1.7153000
H          -0.6908645    -4.3818079    -2.3621327
29
381_C14H14O_6-0-24-25 (120,) energy =    -617.1390999
C           1.3019777    -1.3541771     0.5168094
H           2.1382259    -2.0455939     0.3533407
C           1.0701731    -1.1707723     2.0199501
H           1.9585812    -0.7618295     2.5105788
H           0.8269315    -2.1327355     2.4839538
H           0.2360616    -0.4845325     2.1964430
O           1.6131699    -0.0928459    -0.1061198
C           5.3809922     1.6971401    -0.0208722
H           6.3510567     2.1854567    -0.0187631
C           5.2086111     0.4668715     0.6085101
H           6.0474445    -0.0118475     1.1075077
C           3.9643625    -0.1722524     0.6162072
H           3.8627141    -1.1263045     1.1204009
C           2.8734223     0.4316429    -0.0224105
C           3.0436897     1.6723815    -0.6568124
H           2.1856862     2.1213770    -1.1475110
C           4.2862255     2.2956319    -0.6540030
H           4.4013832     3.2553587    -1.1512259
C          -2.1508477    -2.9340068    -1.5554509
H          -3.0183907    -3.3310924    -2.0757839
C          -2.2237165    -1.6941283    -0.9149334
H          -3.1476203    -1.1222393    -0.9400991
C          -1.1125684    -1.1847875    -0.2452698
H          -1.1701894    -0.2130583     0.2370074
C           0.0881270    -1.9065489    -0.2064066
C           0.1560893    -3.1386776    -0.8636621
H           1.0870765    -3.7013565    -0.8537316
C          -0.9577094    -3.6555702    -1.5291196
H          -0.8887888    -4.6166628    -2.0317563
29
381_C14H14O_6-0-24-25 (135,) energy =    -617.1396164
C           1.3370697    -1.3799090     0.4489424
H           2.1761009    -2.0529555     0.2313490
C           1.1309586    -1.2777675     1.9653492
H           2.0192518    -0.8744296     2.4611664
H           0.9150516    -2.2660997     2.3852114
H           0.2838813    -0.6198653     2.1840582
O           1.6180381    -0.0838316    -0.1078222
C           5.3553605     1.7663512     0.0188329
H           6.3167319     2.2713485     0.0330472
C           5.2178096     0.4943338     0.5688034
H           6.0753878    -0.0006875     1.0174402
C           3.9851432    -0.1667081     0.5597777
H           3.9111095    -1.1538333     1.0010843
C           2.8704085     0.4577257    -0.0146068
C           3.0054358     1.7403881    -0.5686101
H           2.1295504     2.2050694    -1.0107385
C           4.2370449     2.3848464    -0.5505074
H           4.3249019     3.3771458    -0.9854084
C          -2.1926621    -2.9312289    -1.5093734
H          -3.0825326    -3.3243412    -1.9937444
C          -2.1611021    -1.6055304    -1.0691186
H          -3.0262497    -0.9634469    -1.2128365
C          -1.0208402    -1.0996405    -0.4468408
H          -0.9928258    -0.0647369    -0.1191906
C           0.1060312    -1.9111637    -0.2607487
C           0.0701273    -3.2333777    -0.7140827
H           0.9434943    -3.8695747    -0.5862496
C          -1.0738427    -3.7447627    -1.3304717
H          -1.0856055    -4.7745643    -1.6776377
29
381_C14H14O_6-0-24-25 (150,) energy =    -617.1397418
C           0.8682018    -0.4820993     0.2388558
H           1.0499230    -0.6622968     1.3063313
C           0.3335054     0.9420538     0.0335702
H           1.0526651     1.6904177     0.3807975
H          -0.6047744     1.0787850     0.5815673
H           0.1384953     1.1134676    -1.0298266
O           2.0943532    -0.6614237    -0.4846783
C           5.8241564     0.6465102     0.8505608
H           6.8086367     0.9722970     1.1731950
C           4.7101822     0.8582761     1.6590585
H           4.8212360     1.3533568     2.6204421
C           3.4360286     0.4462928     1.2550249
H           2.5891802     0.6309207     1.9056415
C           3.2765867    -0.1930742     0.0189599
C           4.3968603    -0.4066260    -0.7990826
H           4.2515566    -0.9056368    -1.7522318
C           5.6564992     0.0099441    -0.3838618
H           6.5140789    -0.1647804    -1.0284443
C          -2.0263132    -3.3720420    -1.1686221
H          -2.7635306    -4.0886525    -1.5207117
C          -1.0472132    -2.8866102    -2.0376379
H          -1.0196941    -3.2258986    -3.0699343
C          -0.0987915    -1.9673149    -1.5879961
H           0.6689840    -1.5994391    -2.2605575
C          -0.1147180    -1.5265363    -0.2595026
C          -1.0955647    -2.0216778     0.6072457
H          -1.1123174    -1.6934806     1.6447832
C          -2.0482964    -2.9365601     0.1571773
H          -2.8008834    -3.3144603     0.8442359
29
381_C14H14O_6-0-24-25 (165,) energy =    -617.1395287
C           0.8769993    -0.5101772     0.2709390
H           1.1009798    -0.7530232     1.3182382
C           0.3128653     0.9148492     0.1750826
H           1.0352785     1.6508136     0.5413909
H          -0.6053874     1.0057470     0.7643901
H           0.0770263     1.1466979    -0.8682396
O           2.0779377    -0.6153311    -0.5027057
C           5.8348128     0.6562811     0.7919527
H           6.8257461     0.9744752     1.1021374
C           4.7480761     0.7911653     1.6523251
H           4.8870209     1.2182744     2.6422331
C           3.4660313     0.3877301     1.2649371
H           2.6410991     0.5119210     1.9566548
C           3.2707803    -0.1647323    -0.0073002
C           4.3632821    -0.2997185    -0.8777722
H           4.1907356    -0.7305845    -1.8592312
C           5.6312428     0.1071441    -0.4784331
H           6.4670201    -0.0063980    -1.1640019
C          -2.0258676    -3.3672604    -1.1979266
H          -2.7645853    -4.0760363    -1.5624979
C          -0.9106658    -3.0512387    -1.9740498
H          -0.7772933    -3.5144180    -2.9483401
C           0.0415416    -2.1422576    -1.5075411
H           0.9114202    -1.9028086    -2.1083364
C          -0.1104174    -1.5407816    -0.2542353
C          -1.2323509    -1.8638040     0.5204861
H          -1.3597706    -1.4096535     1.5013678
C          -2.1841007    -2.7697460     0.0543368
H          -3.0454639    -3.0128201     0.6710028
29
381_C14H14O_6-0-24-25 (180,) energy =    -617.1388982
C           0.8729175    -0.5189447     0.3001444
H           1.1486233    -0.8233998     1.3190961
C           0.2961854     0.9036157     0.3186964
H           1.0353970     1.6172035     0.6951294
H          -0.5918000     0.9613646     0.9556005
H           0.0133705     1.1977793    -0.6966881
O           2.0416474    -0.5484844    -0.5274891
C           5.8423044     0.6393874     0.7183633
H           6.8435032     0.9382636     1.0144675
C           4.7889850     0.7015194     1.6271916
H           4.9645160     1.0520404     2.6410655
C           3.4939378     0.3222740     1.2588744
H           2.6955145     0.3895720     1.9885360
C           3.2520456    -0.1322989    -0.0436740
C           4.3104260    -0.1926526    -0.9632646
H           4.1014951    -0.5455402    -1.9685382
C           5.5916406     0.1894817    -0.5822636
H           6.4006561     0.1346592    -1.3060677
C          -1.9996082    -3.3906728    -1.2196942
H          -2.7260957    -4.1063386    -1.5952033
C          -0.7721818    -3.2294077    -1.8613586
H          -0.5372596    -3.8205999    -2.7427903
C           0.1637520    -2.3110252    -1.3798532
H           1.1170235    -2.1890890    -1.8799425
C          -0.1169669    -1.5396046    -0.2475503
C          -1.3539881    -1.7068849     0.3913533
H          -1.5895927    -1.1245296     1.2792219
C          -2.2867998    -2.6255874    -0.0873140
H          -3.2379453    -2.7436801     0.4252636
