29
381_C14H14O_24-0-6-13 (-165,) energy =    -617.1396655
C           1.0921136    -1.0021426     0.5205442
H           1.6935402    -1.7072730     1.1094800
C           0.5038960     0.0773798     1.4401818
H           1.2909354     0.6516280     1.9381430
H          -0.1292530    -0.3832615     2.2058251
H          -0.1126263     0.7662993     0.8540002
O           1.9176020    -0.4085485    -0.4931292
C           5.7156905     1.1731845     0.1977227
H           6.7073602     1.5902275     0.3464394
C           5.0861292     0.4674965     1.2203623
H           5.5869486     0.3295316     2.1752671
C           3.8085520    -0.0730479     1.0432188
H           3.3458057    -0.6187631     1.8574241
C           3.1501797     0.0969524    -0.1813895
C           3.7812972     0.8076930    -1.2135985
H           3.2546983     0.9249601    -2.1557164
C           5.0523488     1.3381160    -1.0227152
H           5.5281389     1.8849655    -1.8326850
C          -2.1024471    -3.1873469    -1.4095293
H          -2.9137292    -3.7324014    -1.8846529
C          -1.5445551    -3.6561003    -0.2194030
H          -1.9168316    -4.5699675     0.2360998
C          -0.4976808    -2.9572706     0.3835895
H          -0.0599652    -3.3331603     1.3063359
C          -0.0009461    -1.7809848    -0.1884215
C          -0.5651924    -1.3166597    -1.3826374
H          -0.1721587    -0.4148099    -1.8405400
C          -1.6070734    -2.0178361    -1.9900052
H          -2.0318511    -1.6504637    -2.9206471
29
381_C14H14O_24-0-6-13 (-150,) energy =    -617.1396016
C           1.0153467    -0.8636824     0.5718438
H           1.6829027    -1.5428212     1.1165646
C           0.3501603     0.1095575     1.5532376
H           1.0984391     0.7075488     2.0834458
H          -0.2461826    -0.4387446     2.2903121
H          -0.3146217     0.7880195     1.0091178
O           1.7799963    -0.1320786    -0.3990416
C           5.7669443     0.9840711     0.1117838
H           6.8057172     1.2836735     0.2148681
C           5.0878683     0.4105621     1.1839460
H           5.5955767     0.2625295     2.1336948
C           3.7492538     0.0225089     1.0661354
H           3.2453617    -0.4080399     1.9237707
C           3.0815564     0.2062004    -0.1514609
C           3.7618338     0.7870074    -1.2329872
H           3.2257271     0.9195938    -2.1676272
C           5.0911384     1.1712595    -1.0987533
H           5.6045356     1.6169156    -1.9468734
C          -1.9645886    -3.2379724    -1.4759053
H          -2.7212588    -3.8324515    -1.9809218
C          -1.3743475    -3.7049526    -0.3007579
H          -1.6663953    -4.6666416     0.1128846
C          -0.3976692    -2.9418691     0.3409048
H           0.0657850    -3.3158254     1.2518326
C          -0.0036546    -1.7034888    -0.1776951
C          -0.6001238    -1.2411733    -1.3569424
H          -0.2860397    -0.2896772    -1.7736395
C          -1.5720418    -2.0057004    -2.0027074
H          -2.0226101    -1.6385489    -2.9212359
29
381_C14H14O_24-0-6-13 (-135,) energy =    -617.1388911
C           0.9402961    -0.7370092     0.6674637
H           1.6489730    -1.3833850     1.1979893
C           0.1875925     0.1383174     1.6751047
H           0.8857355     0.7514283     2.2550994
H          -0.3930490    -0.4822776     2.3659861
H          -0.5028503     0.8042967     1.1476361
O           1.6656188     0.1089351    -0.2421392
C           5.7757858     0.7807378    -0.0071258
H           6.8450785     0.9674702     0.0284402
C           5.0988137     0.3372622     1.1272303
H           5.6388299     0.1823476     2.0578593
C           3.7221652     0.0963773     1.0950663
H           3.2153245    -0.2223160     1.9994296
C           3.0138893     0.2910520    -0.0977353
C           3.6906794     0.7425826    -1.2400440
H           3.1223572     0.8879022    -2.1534427
C           5.0593960     0.9863975    -1.1904268
H           5.5713396     1.3324013    -2.0846742
C          -1.7908807    -3.2564257    -1.5496788
H          -2.4845168    -3.8883973    -2.0978466
C          -1.1970111    -3.7201505    -0.3750297
H          -1.4230535    -4.7168033    -0.0050691
C          -0.3012839    -2.9080773     0.3222593
H           0.1654023    -3.2789858     1.2328429
C           0.0079536    -1.6240620    -0.1401573
C          -0.5913063    -1.1656727    -1.3194450
H          -0.3412271    -0.1777898    -1.6926786
C          -1.4828536    -1.9782177    -2.0202456
H          -1.9365285    -1.6126984    -2.9379154
29
381_C14H14O_24-0-6-13 (-120,) energy =    -617.1388554
C           0.8805107    -0.4949226     0.6725647
H           1.5958888    -0.9575526     1.3622056
C          -0.0225097     0.4599583     1.4619505
H           0.5815743     1.2158841     1.9747747
H          -0.6079640    -0.0889278     2.2072626
H          -0.7162911     0.9657529     0.7829953
O           1.5972888     0.3020609    -0.2888423
C           5.7543570     0.6275779    -0.2238088
H           6.8357264     0.7296839    -0.2206749
C           5.1627044    -0.6061693     0.0496447
H           5.7835545    -1.4738435     0.2575744
C           3.7737005    -0.7485999     0.0430738
H           3.3238021    -1.7208551     0.2183472
C           2.9664426     0.3641240    -0.2251878
C           3.5544890     1.6029102    -0.5060685
H           2.9082226     2.4494018    -0.7166860
C           4.9421490     1.7284128    -0.5086584
H           5.3901781     2.6945971    -0.7259398
C          -1.4815833    -3.5662559    -1.2580632
H          -2.0832135    -4.3351025    -1.7354916
C          -1.1373305    -3.6805310     0.0904262
H          -1.4670245    -4.5406078     0.6674658
C          -0.3608111    -2.6942179     0.6983652
H          -0.0905008    -2.7937182     1.7481922
C           0.0789745    -1.5801723    -0.0284148
C          -0.2667631    -1.4742065    -1.3797406
H           0.0854252    -0.6211617    -1.9501089
C          -1.0420493    -2.4621353    -1.9897735
H          -1.3003341    -2.3688161    -3.0415109
29
381_C14H14O_24-0-6-13 (-105,) energy =    -617.1402904
C           0.8083141    -0.3803710     0.7901731
H           1.5051439    -0.8012099     1.5248431
C          -0.2054805     0.5079126     1.5201664
H           0.3121305     1.2915763     2.0829741
H          -0.8084890    -0.0877372     2.2133890
H          -0.8780583     0.9805120     0.7973215
O           1.5305068     0.4843311    -0.1024919
C           5.6915100     0.4267847    -0.3718738
H           6.7746790     0.4337558    -0.4520154
C           5.0176520    -0.7452525    -0.0305351
H           5.5747627    -1.6614649     0.1477195
C           3.6243220    -0.7668000     0.0722459
H           3.1106643    -1.6952073     0.2988409
C           2.8985410     0.4086435    -0.1564698
C           3.5691906     1.5873578    -0.5076718
H           2.9839012     2.4844860    -0.6843651
C           4.9571587     1.5911519    -0.6161500
H           5.4685564     2.5116431    -0.8857227
C          -1.2321352    -3.5715867    -1.3072944
H          -1.7544459    -4.3699505    -1.8276839
C          -0.9150701    -3.7046350     0.0460193
H          -1.1871128    -4.6090880     0.5839224
C          -0.2396003    -2.6796923     0.7088324
H           0.0102424    -2.7928025     1.7623665
C           0.1235502    -1.5079704     0.0323551
C          -0.1939068    -1.3833070    -1.3244701
H           0.0996981    -0.4838468    -1.8558579
C          -0.8674508    -2.4095322    -1.9891041
H          -1.1047822    -2.3010475    -3.0442795
29
381_C14H14O_24-0-6-13 (-90,) energy =    -617.1416188
C           0.7181162    -0.2554969     0.9260491
H           1.3705706    -0.6496394     1.7163204
C          -0.3907607     0.5828780     1.5683823
H           0.0426822     1.3887550     2.1691725
H          -1.0179654    -0.0432719     2.2109652
H          -1.0250781     1.0247498     0.7933073
O           1.4701535     0.6558393     0.1116074
C           5.5731971     0.2472329    -0.5159889
H           6.6426572     0.1669178    -0.6877532
C           4.8447301    -0.8564956    -0.0762221
H           5.3444649    -1.8074514     0.0898929
C           3.4673440    -0.7674502     0.1459235
H           2.9127466    -1.6465709     0.4537491
C           2.8144456     0.4525110    -0.0669053
C           3.5404215     1.5646034    -0.5153829
H           3.0112249     2.4990908    -0.6748130
C           4.9095857     1.4579254    -0.7387964
H           5.4628312     2.3278408    -1.0833132
C          -1.0098313    -3.5212771    -1.3305245
H          -1.4553504    -4.3385766    -1.8913003
C          -0.7007587    -3.6845017     0.0210102
H          -0.9025257    -4.6302478     0.5172130
C          -0.1226933    -2.6350144     0.7363923
H           0.1219123    -2.7702573     1.7885545
C           0.1481851    -1.4100469     0.1143260
C          -0.1626517    -1.2547067    -1.2412817
H           0.0599358    -0.3116044    -1.7306919
C          -0.7368310    -2.3046870    -1.9589351
H          -0.9687351    -2.1726982    -3.0126208
29
381_C14H14O_24-0-6-13 (-75,) energy =    -617.1419499
C           0.6603264    -0.2041276     1.0683905
H           1.2433437    -0.6079633     1.9086762
C          -0.5185759     0.5973038     1.6242165
H          -0.1572378     1.4040772     2.2697155
H          -1.1798599    -0.0542680     2.2038610
H          -1.0971864     1.0355572     0.8048150
O           1.4657670     0.7476381     0.3621682
C           5.4513908     0.0823193    -0.6742337
H           6.4917848    -0.0611813    -0.9511233
C           4.7275050    -0.9540249    -0.0888139
H           5.2016914    -1.9156842     0.0901296
C           3.3866495    -0.7847762     0.2707944
H           2.8391006    -1.6146229     0.7007252
C           2.7648819     0.4480497     0.0418145
C           3.4876790     1.4941734    -0.5501624
H           2.9840408     2.4416973    -0.7157446
C           4.8196346     1.3088623    -0.9045314
H           5.3686990     2.1284545    -1.3609786
C          -0.7819121    -3.4594081    -1.3944347
H          -1.1569982    -4.2743414    -2.0077014
C          -0.5310529    -3.6616087    -0.0362976
H          -0.7088006    -4.6351602     0.4130671
C          -0.0421643    -2.6146643     0.7465220
H           0.1577887    -2.7796858     1.8038648
C           0.1959072    -1.3543096     0.1857643
C          -0.0590970    -1.1590961    -1.1764877
H           0.1353074    -0.1865951    -1.6187291
C          -0.5421609    -2.2061621    -1.9617974
H          -0.7297309    -2.0432610    -3.0199366
29
381_C14H14O_24-0-6-13 (-60,) energy =    -617.1408657
C           0.6122061    -0.1634306     1.1799370
H           1.0977565    -0.5898137     2.0710831
C          -0.6134993     0.6347819     1.6250244
H          -0.3143601     1.4357467     2.3084680
H          -1.3267046    -0.0205505     2.1344633
H          -1.1107797     1.0810136     0.7579819
O           1.4958061     0.8043955     0.5961829
C           5.3239488    -0.0441894    -0.8270030
H           6.3251877    -0.2345808    -1.2025002
C           4.6479240    -1.0180533    -0.0945779
H           5.1218221    -1.9758903     0.1044911
C           3.3583610    -0.7875134     0.3934885
H           2.8498781    -1.5642828     0.9513729
C           2.7361846     0.4399582     0.1386827
C           3.4117388     1.4238295    -0.5972297
H           2.9110008     2.3703387    -0.7770174
C           4.6957173     1.1804516    -1.0741352
H           5.2081281     1.9519284    -1.6431940
C          -0.5676550    -3.3864083    -1.4570476
H          -0.8785328    -4.1938049    -2.1145835
C          -0.3627235    -3.6283021    -0.0979944
H          -0.5128047    -4.6251407     0.3082980
C           0.0445742    -2.5904969     0.7420369
H           0.2093033    -2.7857688     1.8002458
C           0.2456759    -1.3007577     0.2380383
C           0.0339002    -1.0654776    -1.1258355
H           0.1974316    -0.0688992    -1.5256812
C          -0.3656721    -2.1024689    -1.9684590
H          -0.5185877    -1.9081544    -3.0268337
29
381_C14H14O_24-0-6-13 (-45,) energy =    -617.1384538
C           0.5819311    -0.1683456     1.2885083
H           0.9499122    -0.6278446     2.2191995
C          -0.6593353     0.6611351     1.6151003
H          -0.4055419     1.4513289     2.3287554
H          -1.4357863     0.0243553     2.0504271
H          -1.0579373     1.1246931     0.7071459
O           1.5612476     0.7882760     0.8429974
C           5.2045743    -0.1510907    -0.9560385
H           6.1599327    -0.3667835    -1.4257299
C           4.5995451    -1.0925717    -0.1239263
H           5.0848604    -2.0475766     0.0606954
C           3.3713882    -0.8269210     0.4861216
H           2.9175966    -1.5690719     1.1325498
C           2.7345063     0.3969570     0.2499107
C           3.3393581     1.3477826    -0.5823038
H           2.8309164     2.2936452    -0.7428775
C           4.5674325     1.0729593    -1.1780935
H           5.0266086     1.8184143    -1.8223431
C          -0.3894958    -3.3392270    -1.4914588
H          -0.6492336    -4.1342184    -2.1853071
C          -0.2192042    -3.6196523    -0.1354300
H          -0.3456608    -4.6343322     0.2329074
C           0.1228258    -2.5969743     0.7514015
H           0.2607232    -2.8219970     1.8073814
C           0.2917476    -1.2844656     0.2981821
C           0.1126181    -1.0109372    -1.0641231
H           0.2497061     0.0035701    -1.4278862
C          -0.2199843    -2.0316914    -1.9534149
H          -0.3468254    -1.8068976    -3.0091523
29
381_C14H14O_24-0-6-13 (-30,) energy =    -617.1353834
C           0.5473293    -0.1607247     1.3519322
H           0.7771523    -0.6370706     2.3172218
C          -0.6723667     0.7407401     1.5378885
H          -0.4502375     1.5223545     2.2711719
H          -1.5265998     0.1542967     1.8912736
H          -0.9449756     1.2183936     0.5914302
O           1.6362732     0.7407136     1.0460613
C           5.1098486    -0.1944473    -1.0623837
H           6.0240814    -0.4107378    -1.6077096
C           4.5583728    -1.1481302    -0.2058131
H           5.0453515    -2.1115209    -0.0777708
C           3.3858802    -0.8795424     0.5024735
H           2.9724209    -1.6240528     1.1736420
C           2.7468985     0.3555634     0.3392561
C           3.2985592     1.3174698    -0.5155983
H           2.7924778     2.2727813    -0.6168136
C           4.4754992     1.0417243    -1.2086534
H           4.8952534     1.7957819    -1.8696015
C          -0.2742757    -3.3173349    -1.4916239
H          -0.4965902    -4.1095877    -2.2014299
C          -0.1466814    -3.6080403    -0.1334216
H          -0.2695997    -4.6280778     0.2209766
C           0.1467174    -2.5883423     0.7744094
H           0.2503718    -2.8208665     1.8324786
C           0.3086230    -1.2683395     0.3409570
C           0.1712841    -0.9857543    -1.0252166
H           0.3023459     0.0340266    -1.3764335
C          -0.1117765    -2.0024422    -1.9355104
H          -0.2061254    -1.7692038    -2.9927863
29
381_C14H14O_24-0-6-13 (-15,) energy =    -617.1325941
C           0.5077993    -0.1640629     1.4028186
H           0.5980964    -0.6398959     2.3896265
C          -0.6580032     0.8233917     1.4507570
H          -0.4593905     1.5959558     2.2000755
H          -1.5858973     0.3043577     1.7133978
H          -0.7941539     1.3096559     0.4794450
O           1.6973129     0.6525927     1.2347072
C           5.0268096    -0.1719141    -1.1368652
H           5.9065298    -0.3610416    -1.7455310
C           4.5191196    -1.1702501    -0.3033731
H           5.0067346    -2.1407357    -0.2580753
C           3.3933289    -0.9353916     0.4868934
H           3.0120318    -1.7104741     1.1427128
C           2.7545680     0.3096386     0.4303166
C           3.2625890     1.3146161    -0.4011809
H           2.7595751     2.2767571    -0.4176032
C           4.3958508     1.0734322    -1.1767019
H           4.7832235     1.8614725    -1.8175305
C          -0.2097488    -3.3272891    -1.4615613
H          -0.4052328    -4.1224684    -2.1759930
C          -0.1283574    -3.6133974    -0.0989992
H          -0.2609150    -4.6324050     0.2548380
C           0.1290797    -2.5893209     0.8148386
H           0.1953074    -2.8178019     1.8766337
C           0.3008740    -1.2692558     0.3841081
C           0.2104975    -0.9924277    -0.9877886
H           0.3495245     0.0253519    -1.3414878
C          -0.0368335    -2.0131150    -1.9037674
H          -0.0955167    -1.7833623    -2.9643411
29
381_C14H14O_24-0-6-13 (0,) energy =    -617.1307905
C           0.4841194    -0.1753311     1.4327590
H           0.4409706    -0.6354772     2.4282128
C          -0.5978279     0.9024636     1.3539566
H          -0.4149074     1.6662174     2.1160940
H          -1.5878803     0.4644418     1.5216629
H          -0.5961987     1.3882713     0.3727798
O           1.7595416     0.5295399     1.3967697
C           4.9509042    -0.1374717    -1.2046182
H           5.7972710    -0.2895434    -1.8685859
C           4.4925759    -1.1822160    -0.3990046
H           4.9846455    -2.1509529    -0.4318510
C           3.4113935    -0.9941842     0.4621100
H           3.0655713    -1.8024468     1.0975168
C           2.7678593     0.2489077     0.5077356
C           3.2267332     1.2989528    -0.2955573
H           2.7241054     2.2593874    -0.2314339
C           4.3168279     1.1050533    -1.1441739
H           4.6682535     1.9278645    -1.7616023
C          -0.1677288    -3.3524926    -1.4347426
H          -0.3448127    -4.1515910    -2.1496417
C          -0.1253026    -3.6293789    -0.0685698
H          -0.2704900    -4.6455787     0.2883631
C           0.1066471    -2.5988683     0.8447271
H           0.1407153    -2.8205845     1.9093525
C           0.2922435    -1.2807533     0.4117227
C           0.2426605    -1.0144907    -0.9646622
H           0.3933220    -0.0008421    -1.3246928
C           0.0196702    -2.0414859    -1.8799678
H          -0.0086928    -1.8185585    -2.9432140
29
381_C14H14O_24-0-6-13 (15,) energy =    -617.1302649
C           0.4742474    -0.1842945     1.4536720
H           0.3032606    -0.6168624     2.4459593
C          -0.4939045     0.9849925     1.2643211
H          -0.3225804     1.7344466     2.0430912
H          -1.5320562     0.6400210     1.3274600
H          -0.3502681     1.4652429     0.2908201
O           1.8179699     0.3814110     1.5462726
C           4.8799506    -0.0819095    -1.2492710
H           5.6942010    -0.1871794    -1.9608614
C           4.4868948    -1.1702410    -0.4666457
H           4.9966881    -2.1250983    -0.5664768
C           3.4474925    -1.0420406     0.4544293
H           3.1462264    -1.8810689     1.0727478
C           2.7836149     0.1833564     0.5873297
C           3.1783528     1.2766616    -0.1915937
H           2.6651428     2.2242993    -0.0574319
C           4.2255266     1.1427959    -1.1044220
H           4.5292516     1.9982263    -1.7025508
C          -0.1435894    -3.3771906    -1.4072343
H          -0.3092493    -4.1814344    -2.1191348
C          -0.1268763    -3.6434683    -0.0382493
H          -0.2810065    -4.6565040     0.3239314
C           0.0878179    -2.6056094     0.8704979
H           0.1000356    -2.8187633     1.9372942
C           0.2831916    -1.2899454     0.4320721
C           0.2616242    -1.0359077    -0.9473051
H           0.4205056    -0.0265754    -1.3148031
C           0.0537222    -2.0700768    -1.8585927
H           0.0453060    -1.8549875    -2.9238107
29
381_C14H14O_24-0-6-13 (30,) energy =    -617.1312714
C           0.6106615    -0.7841998     1.6501824
H           0.4093649    -1.5371178     2.4219942
C          -0.1309659     0.4927713     2.0473876
H           0.2499791     0.8364990     3.0130538
H          -1.2059248     0.3066035     2.1473429
H           0.0163330     1.2988844     1.3214545
O           2.0386693    -0.5652968     1.8103104
C           4.8515962     0.2660485    -1.1576903
H           5.6071166     0.4824482    -1.9075754
C           5.1609065    -0.5274673    -0.0503243
H           6.1620516    -0.9342551     0.0678645
C           4.1896748    -0.8116669     0.9070151
H           4.4126173    -1.4289960     1.7719589
C           2.8944901    -0.2942665     0.7732295
C           2.5829400     0.5138239    -0.3275855
H           1.5894849     0.9310353    -0.4396456
C           3.5611170     0.7798423    -1.2876616
H           3.3073339     1.4036070    -2.1410631
C          -0.5169947    -2.6536830    -2.0972235
H          -0.7987524    -3.1392560    -3.0276685
C           0.4486540    -3.2297325    -1.2675088
H           0.9223566    -4.1662803    -1.5495262
C           0.8035268    -2.6068333    -0.0738403
H           1.5558959    -3.0581926     0.5678048
C           0.2124305    -1.3937878     0.3121756
C          -0.7554706    -0.8286255    -0.5249842
H          -1.2388653     0.1037696    -0.2506585
C          -1.1187984    -1.4542954    -1.7207680
H          -1.8740062    -0.9995092    -2.3564669
29
381_C14H14O_24-0-6-13 (45,) energy =    -617.1331792
C           0.6263419    -0.8231141     1.5846031
H           0.3407000    -1.5212505     2.3807689
C           0.0285796     0.5404775     1.9415536
H           0.4609466     0.8766242     2.8881399
H          -1.0566877     0.4674523     2.0694214
H           0.2373194     1.3014347     1.1836455
O           2.0638285    -0.7885114     1.7422289
C           4.9406293     0.3934894    -1.0420035
H           5.7145880     0.6948923    -1.7419457
C           5.2632090    -0.3587801     0.0911183
H           6.2939214    -0.6479058     0.2802073
C           4.2705874    -0.7489183     0.9847539
H           4.5048449    -1.3340269     1.8688696
C           2.9339579    -0.3858230     0.7618198
C           2.6051192     0.3736190    -0.3679428
H           1.5807288     0.6611533    -0.5656502
C           3.6115220     0.7512593    -1.2610961
H           3.3428507     1.3364784    -2.1369639
C          -0.7031394    -2.6949932    -2.0971107
H          -1.0371451    -3.1814606    -3.0096053
C           0.3243576    -3.2575670    -1.3352504
H           0.7944551    -4.1845034    -1.6529587
C           0.7487076    -2.6335639    -0.1648172
H           1.5502291    -3.0725300     0.4228449
C           0.1642726    -1.4322518     0.2644776
C          -0.8659771    -0.8794030    -0.5042070
H          -1.3428194     0.0456870    -0.1956988
C          -1.2972439    -1.5064371    -1.6766587
H          -2.0986976    -1.0605036    -2.2598676
29
381_C14H14O_24-0-6-13 (60,) energy =    -617.1346506
C           0.6617230    -0.8763327     1.5146510
H           0.3258614    -1.5191755     2.3374686
C           0.2026937     0.5476686     1.8412101
H           0.6810188     0.8663821     2.7717837
H          -0.8814475     0.5777831     1.9912460
H           0.4636549     1.2656789     1.0589981
O           2.0937424    -0.9974436     1.6405489
C           5.0159850     0.5574279    -0.9050503
H           5.8015558     0.9505930    -1.5438086
C           5.3344057    -0.1379536     0.2655287
H           6.3737592    -0.2897847     0.5454745
C           4.3279889    -0.6406644     1.0831612
H           4.5590817    -1.1801400     1.9966468
C           2.9789065    -0.4562550     0.7425767
C           2.6524153     0.2376159    -0.4292068
H           1.6214949     0.3759950    -0.7267989
C           3.6758817     0.7370642    -1.2406740
H           3.4093275     1.2715444    -2.1490252
C          -0.9052133    -2.7350284    -2.0817006
H          -1.2991166    -3.2169927    -2.9724369
C           0.1627083    -3.3066167    -1.3851529
H           0.6048900    -4.2365413    -1.7329372
C           0.6654937    -2.6880593    -0.2427847
H           1.4990916    -3.1322729     0.2932799
C           0.1181113    -1.4832430     0.2228601
C          -0.9530319    -0.9199145    -0.4805093
H          -1.4002349     0.0102799    -0.1439987
C          -1.4613314    -1.5414877    -1.6246036
H          -2.2924979    -1.0869228    -2.1574121
29
381_C14H14O_24-0-6-13 (75,) energy =    -617.1351346
C           0.7143540    -0.9401969     1.4241747
H           0.3571779    -1.5305782     2.2773368
C           0.3844082     0.5236539     1.7250936
H           0.9384448     0.8358374     2.6152585
H          -0.6836211     0.6351576     1.9376851
H           0.6451641     1.1960423     0.9039295
O           2.1323957    -1.1988158     1.4899646
C           5.0886790     0.7189082    -0.7508502
H           5.8807593     1.2031999    -1.3146443
C           5.3717108     0.0697039     0.4543768
H           6.3891468     0.0461999     0.8363436
C           4.3558975    -0.5456801     1.1796486
H           4.5576695    -1.0488595     2.1203577
C           3.0367702    -0.5263845     0.7042007
C           2.7469765     0.1132204    -0.5077471
H           1.7402488     0.1140333    -0.9063582
C           3.7765089     0.7342406    -1.2207203
H           3.5405986     1.2283639    -2.1598686
C          -1.1321487    -2.7661159    -2.0562296
H          -1.5958921    -3.2388191    -2.9178542
C          -0.0448843    -3.3711073    -1.4205298
H           0.3423889    -4.3180860    -1.7874245
C           0.5487348    -2.7643162    -0.3157667
H           1.3986486    -3.2318409     0.1720863
C           0.0722664    -1.5387895     0.1729811
C          -1.0179966    -0.9406373    -0.4704116
H          -1.4100205     0.0074985    -0.1154160
C          -1.6164095    -1.5501671    -1.5767747
H          -2.4606002    -1.0683999    -2.0632495
29
381_C14H14O_24-0-6-13 (90,) energy =    -617.1342022
C           0.7833747    -0.9976976     1.3206697
H           0.4390318    -1.5374266     2.2126559
C           0.5572171     0.4907512     1.5884326
H           1.1965789     0.8093895     2.4171506
H          -0.4828938     0.6613173     1.8835317
H           0.7770809     1.1185425     0.7215171
O           2.1827555    -1.3642046     1.2970487
C           5.1676902     0.8768960    -0.5718162
H           5.9635389     1.4441816    -1.0459397
C           5.3789069     0.2614648     0.6644648
H           6.3426664     0.3482844     1.1596316
C           4.3563674    -0.4598329     1.2776846
H           4.5007792    -0.9395926     2.2408764
C           3.1103352    -0.5804825     0.6511047
C           2.8961185     0.0200292    -0.5963455
H           1.9435075    -0.0971355    -1.1009871
C           3.9247294     0.7516946    -1.1935858
H           3.7506076     1.2172629    -2.1603686
C          -1.3750550    -2.8075382    -1.9858539
H          -1.9172881    -3.2755431    -2.8031341
C          -0.2458088    -3.4260516    -1.4436976
H           0.0960371    -4.3788959    -1.8396083
C           0.4494026    -2.8254705    -0.3958206
H           1.3323820    -3.3021564     0.0178786
C           0.0324058    -1.5935110     0.1298149
C          -1.0998048    -0.9806844    -0.4218125
H          -1.4466550    -0.0258387    -0.0387134
C          -1.7990631    -1.5834249    -1.4709583
H          -2.6738572    -1.0896894    -1.8862505
29
381_C14H14O_24-0-6-13 (105,) energy =    -617.1324830
C           0.7724699    -0.9261902     1.1916801
H           0.4193184    -1.3105590     2.1583048
C           0.6273041     0.5984544     1.2345891
H           1.2705047     1.0155947     2.0158538
H          -0.4074367     0.8593574     1.4752135
H           0.8831764     1.0711949     0.2837431
O           2.1428073    -1.3840388     1.1576692
C           5.3648019     0.8336788    -0.2989037
H           6.2202430     1.3918444    -0.6686898
C           5.3834543     0.2844485     0.9851532
H           6.2552715     0.4141647     1.6212040
C           4.2836725    -0.4264347     1.4643592
H           4.2792831    -0.8586152     2.4603247
C           3.1570993    -0.6018130     0.6537333
C           3.1392125    -0.0685598    -0.6416689
H           2.2774163    -0.2316552    -1.2807309
C           4.2399963     0.6535036    -1.1059644
H           4.2190864     1.0674443    -2.1108578
C          -1.6369465    -2.8911382    -1.8424652
H          -2.2445277    -3.3849087    -2.5960969
C          -0.2741795    -3.1686852    -1.7424310
H           0.1873396    -3.8845723    -2.4178225
C           0.5065349    -2.5351218    -0.7726305
H           1.5624934    -2.7655851    -0.6861966
C          -0.0610018    -1.6060698     0.1064422
C          -1.4352248    -1.3420983     0.0051370
H          -1.9071767    -0.6400736     0.6881387
C          -2.2161378    -1.9767583    -0.9599579
H          -3.2787536    -1.7563577    -1.0219799
29
381_C14H14O_24-0-6-13 (120,) energy =    -617.1315109
C           0.8094071    -0.8859452     1.0406050
H           0.5046477    -1.1629900     2.0595716
C           0.6879053     0.6375247     0.9269025
H           1.3606915     1.1359702     1.6318138
H          -0.3383964     0.9299965     1.1690219
H           0.9109713     0.9955165    -0.0812271
O           2.1588473    -1.3935355     0.9262186
C           5.4963775     0.8879568    -0.1080723
H           6.3807793     1.4609185    -0.3720948
C           5.3623159     0.3526879     1.1748689
H           6.1435488     0.5073905     1.9145640
C           4.2257956    -0.3800361     1.5177070
H           4.1061449    -0.8071769     2.5087965
C           3.2169368    -0.5876060     0.5715214
C           3.3539846    -0.0661854    -0.7209969
H           2.5800876    -0.2531627    -1.4592269
C           4.4893055     0.6749796    -1.0517212
H           4.5894098     1.0790456    -2.0558103
C          -1.8463456    -2.9319829    -1.7125688
H          -2.5176922    -3.4383121    -2.4009404
C          -0.4651280    -3.0608186    -1.8539689
H          -0.0538348    -3.6729884    -2.6526054
C           0.3993214    -2.4128376    -0.9679892
H           1.4725025    -2.5351702    -1.0636937
C          -0.1062972    -1.6209126     0.0674576
C          -1.4968417    -1.5087343     0.2107836
H          -1.9108566    -0.9159845     1.0240929
C          -2.3607609    -2.1550440    -0.6717168
H          -3.4356551    -2.0558169    -0.5439487
29
381_C14H14O_24-0-6-13 (135,) energy =    -617.1316971
C           0.8773313    -0.9100688     0.8979024
H           0.6601318    -1.1416301     1.9506683
C           0.7494787     0.6063499     0.7116780
H           1.4463726     1.1494861     1.3571479
H          -0.2691865     0.9103945     0.9721403
H           0.9340570     0.8985464    -0.3263364
O           2.2011344    -1.4315322     0.6355989
C           5.5756337     0.9637140     0.0948846
H           6.4676910     1.5676423    -0.0456461
C           5.2585261     0.4644486     1.3601953
H           5.9045736     0.6771573     2.2080077
C           4.1144238    -0.3127916     1.5436527
H           3.8609894    -0.7195813     2.5183064
C           3.2797756    -0.5928496     0.4565868
C           3.5988198    -0.1021293    -0.8138262
H           2.9520670    -0.3402735    -1.6530300
C           4.7440732     0.6759639    -0.9894839
H           4.9881205     1.0541961    -1.9788142
C          -2.0366412    -2.9501330    -1.5790935
H          -2.7753801    -3.4504415    -2.1995725
C          -0.6872568    -2.9770487    -1.9309210
H          -0.3691394    -3.5027508    -2.8276995
C           0.2641606    -2.3375368    -1.1327556
H           1.3157527    -2.3808254    -1.3934482
C          -0.1227690    -1.6582400     0.0261993
C          -1.4789490    -1.6483088     0.3802233
H          -1.7941165    -1.1414206     1.2905188
C          -2.4301821    -2.2844323    -0.4158787
H          -3.4772059    -2.2664139    -0.1245068
29
381_C14H14O_24-0-6-13 (150,) energy =    -617.1337164
C           1.2554468    -1.4234622     0.6531428
H           1.5559126    -2.1786411     1.3936090
C           0.8564959    -0.1353033     1.3870562
H           1.6634025     0.2535794     2.0133090
H          -0.0072349    -0.3442137     2.0262282
H           0.5682790     0.6393785     0.6686731
O           2.3454124    -1.2445343    -0.2792383
C           5.3423353     1.6282370     0.1396226
H           6.1329483     2.3678878     0.2280695
C           5.1031057     0.7265746     1.1788989
H           5.7122743     0.7582996     2.0785838
C           4.0931980    -0.2295770     1.0677223
H           3.9233728    -0.9483662     1.8643274
C           3.3006100    -0.2750232    -0.0864720
C           3.5411294     0.6224825    -1.1310875
H           2.9282001     0.5617010    -2.0252469
C           4.5619557     1.5663969    -1.0167076
H           4.7433181     2.2594516    -1.8341336
C          -2.2112806    -2.8550621    -1.5077041
H          -3.0914145    -3.2053012    -2.0403713
C          -1.9359906    -3.3227211    -0.2219422
H          -2.5989495    -4.0421108     0.2516695
C          -0.8001548    -2.8759250     0.4545537
H          -0.5847801    -3.2519781     1.4529246
C           0.0690303    -1.9520955    -0.1371206
C          -0.2109953    -1.4924252    -1.4286568
H           0.4716262    -0.7958443    -1.9039654
C          -1.3432651    -1.9413213    -2.1089008
H          -1.5457559    -1.5792329    -3.1136489
29
381_C14H14O_24-0-6-13 (165,) energy =    -617.1364263
C           1.2209380    -1.2925578     0.5620366
H           1.6321800    -2.0287958     1.2677471
C           0.7606059    -0.0466947     1.3341823
H           1.5758329     0.4178428     1.8947229
H          -0.0276663    -0.3293147     2.0392796
H           0.3479082     0.6925667     0.6397049
O           2.2166652    -0.9909858    -0.4357541
C           5.4910288     1.5081442     0.2226353
H           6.3515419     2.1545389     0.3690931
C           5.0987455     0.6196724     1.2249517
H           5.6580399     0.5670469     2.1555516
C           3.9964410    -0.2171128     1.0426377
H           3.7118088    -0.9215768     1.8183241
C           3.2666191    -0.1540322    -0.1514709
C           3.6589159     0.7325169    -1.1603419
H           3.0868955     0.7579698    -2.0827718
C           4.7686124     1.5545743    -0.9721785
H           5.0656008     2.2392636    -1.7623879
C          -2.2257497    -2.9902114    -1.4273372
H          -3.1012797    -3.4083829    -1.9168447
C          -1.8374614    -3.4519914    -0.1689335
H          -2.4069898    -4.2341872     0.3261320
C          -0.7079021    -2.9175070     0.4522544
H          -0.4036765    -3.2887675     1.4290099
C           0.0415501    -1.9117596    -0.1683693
C          -0.3518339    -1.4562898    -1.4319363
H           0.2382667    -0.6930765    -1.9282333
C          -1.4773276    -1.9935936    -2.0570430
H          -1.7685546    -1.6346743    -3.0408858
29
381_C14H14O_24-0-6-13 (180,) energy =    -617.1386141
C           1.1614537    -1.1483945     0.5133556
H           1.6746654    -1.8699626     1.1643324
C           0.6390143     0.0271766     1.3528292
H           1.4497583     0.5588443     1.8586105
H          -0.0603582    -0.3412622     2.1104626
H           0.1052763     0.7339219     0.7092029
O           2.0672989    -0.7049121    -0.5114403
C           5.6188361     1.3500982     0.2400506
H           6.5489734     1.8854125     0.4069546
C           5.0899878     0.5287025     1.2347789
H           5.6103143     0.4169865     2.1826365
C           3.8944092    -0.1650906     1.0310755
H           3.5075737    -0.8104850     1.8124941
C           3.2127970    -0.0276737    -0.1849478
C           3.7421306     0.7954786    -1.1878433
H           3.2011690     0.8826036    -2.1250974
C           4.9379924     1.4751592    -0.9744877
H           5.3377252     2.1101262    -1.7609307
C          -2.1909975    -3.1055866    -1.3939984
H          -3.0426534    -3.5909700    -1.8631470
C          -1.7042843    -3.5701406    -0.1714162
H          -2.1727233    -4.4213233     0.3157141
C          -0.6054437    -2.9487478     0.4237253
H          -0.2236356    -3.3216478     1.3721537
C           0.0142745    -1.8534881    -0.1879287
C          -0.4783111    -1.3938783    -1.4150382
H           0.0105912    -0.5575511    -1.9036294
C          -1.5723659    -2.0182052    -2.0144339
H          -1.9411070    -1.6555589    -2.9704896
