24
351_C10H12FN_0-6-19-18 (-165,) energy =    -542.8759551
C           1.1742434    -0.5765712    -1.6074308
H           1.8125731    -0.9537438    -2.4165407
H           0.7817023     0.3913729    -1.9292332
C           0.0644048    -1.5931273    -1.2810494
H          -0.3430711    -2.0657119    -2.1809867
H          -0.7705316    -1.0785704    -0.7892219
C           1.9819306    -0.5064968    -0.2953822
H           1.3626475     0.0235148     0.4466103
C           2.0600568    -1.9921863     0.1383187
H           2.2608450    -2.0968440     1.2065978
H           2.8952603    -2.4700554    -0.3884229
C           0.7103822    -2.6161199    -0.3032123
H           0.0562947    -2.8008823     0.5558469
H           0.8708008    -3.5860551    -0.7859438
C           5.8296369     1.3860968    -0.0771900
H           6.8120319     1.8318879     0.0448659
C           5.3103235     0.5157026     0.8814501
H           5.8834691     0.2704276     1.7738970
N           4.1111660    -0.0618269     0.7800010
C           3.3343414     0.1830412    -0.2916593
C           3.7977480     1.0604105    -1.2812692
F           3.0369381     1.3532264    -2.3615134
C           5.0444391     1.6655046    -1.1913689
H           5.3682537     2.3354829    -1.9817051
24
351_C10H12FN_0-6-19-18 (-150,) energy =    -542.8765687
C           1.2416581    -0.6829307    -1.6547798
H           1.9366818    -1.1094970    -2.3910662
H           0.8719827     0.2590261    -2.0642308
C           0.1101250    -1.6791887    -1.3395685
H          -0.2195819    -2.2261083    -2.2292487
H          -0.7639294    -1.1321630    -0.9647299
C           1.9642455    -0.5210016    -0.2984828
H           1.3075869     0.0852544     0.3481185
C           1.9862089    -1.9616891     0.2628190
H           2.0976607    -1.9795140     1.3493620
H           2.8566635    -2.4871961    -0.1466866
C           0.6690458    -2.6152921    -0.2306282
H          -0.0528259    -2.7245332     0.5861003
H           0.8575770    -3.6237173    -0.6142381
C           5.8200574     1.3573122    -0.1068595
H           6.8075484     1.7963426    -0.0025732
C           5.3890303     0.3462190     0.7507069
H           6.0367883    -0.0176473     1.5462832
N           4.1873554    -0.2321455     0.6649310
C           3.3243804     0.1534444    -0.2909690
C           3.6942950     1.1831856    -1.1680581
F           2.8320552     1.6234261    -2.1135317
C           4.9401680     1.7890271    -1.0962221
H           5.1917034     2.5768698    -1.7993208
24
351_C10H12FN_0-6-19-18 (-135,) energy =    -542.8777889
C           1.3424732    -0.8027558    -1.7166243
H           2.0811113    -1.3091594    -2.3536126
H           1.0325318     0.1076871    -2.2329555
C           0.1667344    -1.7458213    -1.4007022
H          -0.1104416    -2.3654666    -2.2600889
H          -0.7185552    -1.1517042    -1.1420377
C           1.9684313    -0.5359887    -0.3265245
H           1.2782980     0.1371751     0.2094096
C           1.9218317    -1.9207556     0.3500975
H           1.9618837    -1.8520249     1.4406112
H           2.8040009    -2.4937120     0.0450773
C           0.6222582    -2.5873941    -0.1737822
H          -0.1568657    -2.6034950     0.5961615
H           0.8070807    -3.6312290    -0.4491970
C           5.8221543     1.3389768    -0.1724554
H           6.8121327     1.7772091    -0.0907995
C           5.4726515     0.2145356     0.5723369
H           6.1874779    -0.2405951     1.2554186
N           4.2700388    -0.3691565     0.5108956
C           3.3320499     0.1268988    -0.3109978
C           3.6179016     1.2742716    -1.0656353
F           2.6629486     1.8159728    -1.8569076
C           4.8587912     1.8885734    -1.0173049
H           5.0453497     2.7708297    -1.6215165
24
351_C10H12FN_0-6-19-18 (-120,) energy =    -542.8790370
C           1.4427272    -0.8744746    -1.7474726
H           2.2167335    -1.4406295    -2.2837200
H           1.1989577     0.0053188    -2.3484468
C           0.2256819    -1.7705070    -1.4543767
H          -0.0043641    -2.4445724    -2.2862324
H          -0.6615904    -1.1439765    -1.3004517
C           1.9670613    -0.5163367    -0.3344914
H           1.2541202     0.2051047     0.0955634
C           1.8508914    -1.8497292     0.4259277
H           1.8138422    -1.7079874     1.5104978
H           2.7417233    -2.4519030     0.2223526
C           0.5769856    -2.5313143    -0.1422611
H          -0.2545532    -2.4796424     0.5690593
H           0.7580959    -3.5949597    -0.3305168
C           5.8265589     1.3351094    -0.2187629
H           6.8205369     1.7680638    -0.1606962
C           5.5388075     0.1189964     0.3966519
H           6.3090305    -0.4147151     0.9502175
N           4.3331393    -0.4634245     0.3616369
C           3.3344440     0.1328420    -0.3043367
C           3.5600968     1.3668382    -0.9317172
F           2.5370627     1.9779184    -1.5734207
C           4.7991395     1.9834874    -0.9053082
H           4.9393035     2.9377325    -1.4032800
24
351_C10H12FN_0-6-19-18 (-105,) energy =    -542.8797108
C           1.5200977    -0.9691220    -1.7669145
H           2.3263062    -1.5725556    -2.2053322
H           1.3237282    -0.1321893    -2.4444523
C           0.2811232    -1.8399382    -1.4914276
H           0.1036400    -2.5735826    -2.2848872
H          -0.6110921    -1.2036480    -1.4429135
C           1.9511191    -0.5066195    -0.3522919
H           1.2202086     0.2462229    -0.0233671
C           1.7819665    -1.7834889     0.4909610
H           1.6756602    -1.5646780     1.5586425
H           2.6809062    -2.3973576     0.3834167
C           0.5417282    -2.5021110    -0.1060791
H          -0.3335390    -2.3936563     0.5437093
H           0.7254588    -3.5775604    -0.2021975
C           5.8198287     1.3169309    -0.2691178
H           6.8189068     1.7401725    -0.2304834
C           5.5702949     0.0313753     0.2067194
H           6.3766322    -0.5679283     0.6252815
N           4.3608021    -0.5438792     0.1912371
C           3.3201780     0.1347587    -0.3102359
C           3.5093031     1.4327824    -0.8054871
F           2.4462488     2.1025790    -1.3081723
C           4.7507249     2.0448101    -0.7937865
H           4.8630391     3.0520322    -1.1824896
24
351_C10H12FN_0-6-19-18 (-90,) energy =    -542.8799969
C           1.5681883    -1.0332802    -1.7950143
H           2.4013544    -1.6574372    -2.1439576
H           1.3998307    -0.2521455    -2.5444096
C           0.3223791    -1.8937333    -1.5188468
H           0.1912442    -2.6859464    -2.2636353
H          -0.5756030    -1.2653392    -1.5629272
C           1.9235498    -0.4574000    -0.4013966
H           1.1840779     0.3192594    -0.1676613
C           1.7101195    -1.6660385     0.5322950
H           1.5305543    -1.3582504     1.5681149
H           2.6197337    -2.2732109     0.5310200
C           0.5169209    -2.4504578    -0.0781507
H          -0.3947508    -2.3169606     0.5142721
H           0.7256376    -3.5256328    -0.0890200
C           5.8144170     1.3177663    -0.2987551
H           6.8208627     1.7234750    -0.2635082
C           5.5723928    -0.0212914     0.0047549
H           6.3930878    -0.6807728     0.2808618
N           4.3553205    -0.5771762    -0.0153666
C           3.2959731     0.1749322    -0.3464048
C           3.4764600     1.5267371    -0.6684394
F           2.4004973     2.2723144    -1.0105203
C           4.7280625     2.1199978    -0.6476803
H           4.8334951     3.1708364    -0.8982791
24
351_C10H12FN_0-6-19-18 (-75,) energy =    -542.8804451
C           1.6187737    -1.1446711    -1.8236650
H           2.4734485    -1.7863958    -2.0730895
H           1.4776718    -0.4402337    -2.6510219
C           0.3685961    -1.9915477    -1.5257513
H           0.2785916    -2.8503278    -2.1995325
H          -0.5321201    -1.3817798    -1.6675768
C           1.9072221    -0.4383240    -0.4769190
H           1.1593800     0.3516553    -0.3414420
C           1.6594634    -1.5617003     0.5544947
H           1.4327251    -1.1634296     1.5495024
H           2.5729731    -2.1575474     0.6418988
C           0.5003527    -2.4115105    -0.0327372
H          -0.4379119    -2.2326308     0.5035507
H           0.7160547    -3.4808205     0.0657683
C           5.8125386     1.3008299    -0.3244624
H           6.8245789     1.6917081    -0.2824632
C           5.5680114    -0.0679387    -0.2095005
H           6.3934046    -0.7649850    -0.0766796
N           4.3451233    -0.6063245    -0.2488993
C           3.2788859     0.1925000    -0.4108804
C           3.4598757     1.5754284    -0.5360891
F           2.3826294     2.3764795    -0.7032252
C           4.7208344     2.1506063    -0.4931939
H           4.8271349     3.2265076    -0.5897590
24
351_C10H12FN_0-6-19-18 (-60,) energy =    -542.8807411
C           1.6704651    -1.2495266    -1.8442299
H           2.5365045    -1.9054254    -1.9935202
H           1.5650534    -0.6264401    -2.7395923
C           0.4079067    -2.0698402    -1.5250799
H           0.3460963    -2.9861703    -2.1218172
H          -0.4860913    -1.4787876    -1.7590794
C           1.8998905    -0.4203369    -0.5605132
H           1.1504164     0.3777222    -0.5192959
C           1.6102571    -1.4516162     0.5581464
H           1.3488303    -0.9701384     1.5067580
H           2.5197514    -2.0377267     0.7271200
C           0.4743427    -2.3524483     0.0040454
H          -0.4845271    -2.1244607     0.4821465
H           0.6820600    -3.4079541     0.2097592
C           5.8132357     1.2876831    -0.3240272
H           6.8289020     1.6670181    -0.2669961
C           5.5656294    -0.0831845    -0.4099064
H           6.3911516    -0.7925643    -0.4212808
N           4.3392787    -0.6085965    -0.4812784
C           3.2718255     0.2058110    -0.4727811
C           3.4552311     1.5909556    -0.3894104
F           2.3782697     2.4094097    -0.3823807
C           4.7212091     2.1529108    -0.3133332
H           4.8302414     3.2309427    -0.2485303
24
351_C10H12FN_0-6-19-18 (-45,) energy =    -542.8805602
C           1.0153622    -0.4610368     0.5086758
H           1.1337152     0.4981260    -0.0029271
H           0.9324325    -0.2516670     1.5806715
C          -0.2158204    -1.2337746    -0.0474420
H          -0.7752567    -0.6015489    -0.7458904
H          -0.9154697    -1.5184838     0.7455483
C           2.2511653    -1.3455356     0.1992166
H           2.3946193    -2.0705162     1.0077435
C           1.8165700    -2.1215450    -1.0684072
H           2.4482447    -2.9943797    -1.2689992
H           1.8846459    -1.4509176    -1.9346394
C           0.3528239    -2.4798804    -0.7739183
H           0.3169385    -3.3535727    -0.1103493
H          -0.2108082    -2.7399097    -1.6765881
C           5.8828325     0.8390346    -0.3826724
H           6.7765087     1.4279860    -0.5648544
C           4.6565004     1.2113382    -0.9343821
H           4.5795041     2.1000162    -1.5581922
N           3.5229115     0.5299939    -0.7419016
C           3.5402272    -0.5776950     0.0156525
C           4.7418440    -1.0045924     0.5939574
F           4.7563098    -2.1235261     1.3541404
C           5.9262088    -0.3075085     0.4083492
H           6.8404297    -0.6625785     0.8734813
24
351_C10H12FN_0-6-19-18 (-30,) energy =    -542.8800785
C           0.9747713    -0.3952474     0.4163252
H           1.0961781     0.5182895    -0.1711610
H           0.8436436    -0.0920803     1.4606788
C          -0.2176362    -1.2440318    -0.1140194
H          -0.7601078    -0.6919075    -0.8896168
H          -0.9442521    -1.4706191     0.6734045
C           2.2349329    -1.2754359     0.2391168
H           2.3521962    -1.9291008     1.1119158
C           1.8705762    -2.1765624    -0.9683941
H           2.5286599    -3.0478913    -1.0588078
H           1.9598567    -1.5905566    -1.8928462
C           0.4029483    -2.5390998    -0.6991958
H           0.3576385    -3.3487578     0.0405951
H          -0.1186064    -2.8937453    -1.5948902
C           5.9056220     0.8403022    -0.3637984
H           6.8119558     1.4109818    -0.5417292
C           4.6605259     1.3353495    -0.7490587
H           4.5807488     2.3048981    -1.2371849
N           3.5099540     0.6818056    -0.5507388
C           3.5306171    -0.5190942     0.0448436
C           4.7528383    -1.0726831     0.4492493
F           4.7642159    -2.2892760     1.0411208
C           5.9528325    -0.4075404     0.2572659
H           6.8820161    -0.8619163     0.5863773
24
351_C10H12FN_0-6-19-18 (-15,) energy =    -542.8797412
C           0.2329553     0.0626920     0.4524061
H           0.4172596     0.8525030    -0.2813950
H           0.1990542     0.5461265     1.4345102
C          -1.0669256    -0.7169872     0.1168833
H          -1.7077930    -0.1328172    -0.5521922
H          -1.6576321    -0.9151109     1.0179178
C           1.3646334    -0.9772830     0.3530056
H           1.3736869    -1.5972645     1.2606319
C           0.8924517    -1.8804652    -0.8149270
H           1.4370483    -2.8289377    -0.8628650
H           1.0581687    -1.3512324    -1.7628360
C          -0.6134479    -2.0509024    -0.5462668
H          -0.7709209    -2.8885358     0.1442029
H          -1.1745519    -2.2825663    -1.4577895
C           5.3098740     0.5744660    -0.2181717
H           6.2923282     1.0085002    -0.3768391
C           4.1561357     1.3353157    -0.3960694
H           4.2245316     2.3788273    -0.6977118
N           2.9178936     0.8597277    -0.2109591
C           2.7563703    -0.4173570     0.1605928
C           3.8798722    -1.2336338     0.3529784
F           3.6969905    -2.5215703     0.7261505
C           5.1670813    -0.7582264     0.1709620
H           6.0159652    -1.4154910     0.3308938
24
351_C10H12FN_0-6-19-18 (0,) energy =    -542.8790997
C           0.2378312     0.0985032     0.3412847
H           0.4414434     0.8136549    -0.4613727
H           0.1876820     0.6791899     1.2678432
C          -1.0603666    -0.7026684     0.0558745
H          -1.6815007    -0.1833631    -0.6817763
H          -1.6724472    -0.8070079     0.9584211
C           1.3655574    -0.9509445     0.3676108
H           1.3506306    -1.4807506     1.3325493
C           0.9092374    -1.9597026    -0.7176038
H           1.4449684    -2.9114810    -0.6688132
H           1.0941329    -1.5235213    -1.7087723
C          -0.6022336    -2.0967321    -0.4626923
H          -0.7764019    -2.8610460     0.3047616
H          -1.1475908    -2.4170337    -1.3567483
C           5.3193770     0.5998637    -0.1783130
H           6.3028584     1.0374656    -0.3199662
C           4.1752226     1.3944504    -0.1897728
H           4.2513869     2.4700669    -0.3374755
N           2.9366859     0.9139185    -0.0188196
C           2.7621654    -0.4020478     0.1651204
C           3.8782598    -1.2505859     0.2016534
F           3.6939572    -2.5734218     0.4210475
C           5.1653239    -0.7717440     0.0277717
H           6.0065336    -1.4569784     0.0593329
24
351_C10H12FN_0-6-19-18 (15,) energy =    -542.8781153
C           0.1834677     0.0630379    -0.2869954
H           0.4030119     0.5561079    -1.2419028
H           0.0584051     0.8538306     0.4583893
C          -1.0335728    -0.8601537    -0.4231735
H          -1.8792946    -0.3838046    -0.9310949
H          -1.3833908    -1.1622629     0.5734184
C           1.3242763    -0.9114493     0.0634025
H           1.2170241    -1.1960585     1.1215284
C           1.0197048    -2.1794470    -0.8017670
H           1.2477345    -3.0951642    -0.2509045
H           1.6495690    -2.1902375    -1.6979385
C          -0.4844278    -2.0825934    -1.1890348
H          -1.0336343    -3.0013869    -0.9574725
H          -0.5835493    -1.9196275    -2.2686705
C           5.2427594     0.7755911    -0.3431592
H           6.2123338     1.2535671    -0.4444398
C           4.0696512     1.5274189    -0.3520971
H           4.1083200     2.6101982    -0.4559075
N           2.8473718     0.9947895    -0.2326693
C           2.7154444    -0.3340869    -0.1070865
C           3.8620407    -1.1403353    -0.0668701
F           3.7314376    -2.4756561     0.1085797
C           5.1340762    -0.6065910    -0.1916867
H           5.9989769    -1.2618365    -0.1624295
24
351_C10H12FN_0-6-19-18 (30,) energy =    -542.8767043
C           0.1167193     0.2231766    -0.5266738
H           0.3992965     0.5651266    -1.5310283
H           0.0234635     1.1130028     0.1005304
C          -1.1582761    -0.6312464    -0.5810820
H          -1.9186629    -0.2118367    -1.2484244
H          -1.6075476    -0.6841226     0.4189431
C           1.1847934    -0.7636064    -0.0110448
H           0.9860402    -0.9482613     1.0571218
C           0.8586293    -2.0642514    -0.7950081
H           1.1891724    -2.9621314    -0.2685632
H           1.3865078    -2.0508203    -1.7558164
C          -0.6791304    -2.0385520    -1.0261373
H          -1.1852550    -2.8277613    -0.4598025
H          -0.9093644    -2.2180192    -2.0820030
C           5.1567022     0.8520933    -0.2168484
H           6.1350055     1.3211214    -0.2581660
C           3.9993777     1.6167065    -0.0765352
H           4.0594178     2.7008485     0.0006568
N           2.7705655     1.0938464    -0.0243865
C           2.6046689    -0.2366686    -0.1186128
C           3.7350205    -1.0586249    -0.2319609
F           3.6009123    -2.4044540    -0.2731329
C           5.0166418    -0.5314295    -0.2934011
H           5.8656384    -1.2008658    -0.3902512
24
351_C10H12FN_0-6-19-18 (45,) energy =    -542.8759431
C           0.2287274     0.2183118    -0.5952010
H           0.6225708     0.5742409    -1.5553735
H           0.1270214     1.0947837     0.0481955
C          -1.0984076    -0.5547295    -0.8057541
H          -1.5472795    -0.3022004    -1.7722706
H          -1.8372952    -0.2906780    -0.0412586
C           1.2153711    -0.8236651    -0.0099313
H           0.9722305    -0.9508347     1.0574874
C           0.8072793    -2.1187310    -0.7414780
H           1.2061242    -3.0253262    -0.2791904
H           1.1767241    -2.0915836    -1.7744271
C          -0.7319166    -2.0646894    -0.7203851
H          -1.1008426    -2.4877987     0.2222348
H          -1.1780952    -2.6563506    -1.5266510
C           5.2448212     0.6580713    -0.0675681
H           6.2372271     1.0981830    -0.0553412
C           4.1255082     1.3964821     0.3175650
H           4.2303683     2.4304626     0.6416256
N           2.8839516     0.9065011     0.3184502
C           2.6608824    -0.3632226    -0.0689741
C           3.7490859    -1.1581416    -0.4531192
F           3.5713895    -2.4476470    -0.8234341
C           5.0457675    -0.6609177    -0.4630769
H           5.8607040    -1.3080692    -0.7720199
24
351_C10H12FN_0-6-19-18 (60,) energy =    -542.8758313
C           0.2716265     0.1885385    -0.7394901
H           0.6883287     0.4168011    -1.7288972
H           0.1794717     1.1360479    -0.2031542
C          -1.0671971    -0.5823517    -0.8796496
H          -1.4936292    -0.4449567    -1.8789721
H          -1.8138384    -0.2133252    -0.1681997
C           1.2212634    -0.7974399    -0.0109565
H           0.9337620    -0.7990421     1.0515518
C           0.8090822    -2.1546342    -0.6113657
H           1.1996754    -3.0139240    -0.0569736
H           1.1758998    -2.2373079    -1.6401508
C          -0.7293283    -2.0770623    -0.6022499
H          -1.1087095    -2.3717560     0.3839981
H          -1.1833320    -2.7561712    -1.3315118
C           5.2498593     0.6784291     0.0153506
H           6.2416988     1.1177261     0.0593211
C           4.1468541     1.3368127     0.5610495
H           4.2640102     2.3058052     1.0432128
N           2.9078515     0.8426363     0.5361312
C           2.6701767    -0.3512618    -0.0408716
C           3.7395871    -1.0609784    -0.6013185
F           3.5480818    -2.2715571    -1.1754919
C           5.0350795    -0.5595923    -0.5811142
H           5.8367021    -1.1420534    -1.0244499
24
351_C10H12FN_0-6-19-18 (75,) energy =    -542.8760757
C           0.2989671     0.1520456    -0.8740882
H           0.7396543     0.2579878    -1.8738883
H           0.2173740     1.1557820    -0.4476035
C          -1.0547813    -0.6020027    -0.9546777
H          -1.4632538    -0.5643674    -1.9700552
H          -1.8024132    -0.1423777    -0.2993456
C           1.2060286    -0.7669374    -0.0150883
H           0.8852524    -0.6462650     1.0291574
C           0.7819215    -2.1732755    -0.4777403
H           1.1436405    -2.9721478     0.1791070
H           1.1647449    -2.3756038    -1.4819071
C          -0.7551367    -2.0652875    -0.5104821
H          -1.1617149    -2.2442698     0.4923845
H          -1.2088578    -2.8090505    -1.1737954
C           5.2511599     0.6552421     0.0565283
H           6.2496875     1.0766445     0.1200229
C           4.1847620     1.2222237     0.7554540
H           4.3376663     2.1019461     1.3781456
N           2.9401371     0.7419250     0.7177286
C           2.6609999    -0.3458515    -0.0264632
C           3.6903673    -0.9533889    -0.7566415
F           3.4507893    -2.0452790    -1.5202610
C           4.9912975    -0.4686187    -0.7213003
H           5.7619833    -0.9729572    -1.2957980
24
351_C10H12FN_0-6-19-18 (90,) energy =    -542.8774623
C           0.9085412    -0.2059564    -0.5454643
H           1.3055532     0.2293582    -1.4716106
H           0.3776042     0.5903144    -0.0152294
C           0.0328415    -1.4221982    -0.8896176
H          -0.6151288    -1.2468588    -1.7557835
H          -0.6162600    -1.6761652    -0.0402423
C           2.0813325    -0.7897649     0.3102984
H           1.8369349    -0.6311760     1.3650169
C           2.0875686    -2.3264727     0.0170167
H           1.7590395    -2.8545429     0.9197739
H           3.0767603    -2.7136098    -0.2349936
C           1.0635946    -2.5399130    -1.1152717
H           0.6258816    -3.5442119    -1.1095548
H           1.5527331    -2.3973584    -2.0871968
C           5.6099443     1.5799843    -0.2316363
H           6.4799948     2.2233612    -0.3197305
C           4.6622131     1.7880239     0.7697349
H           4.7763784     2.6082446     1.4761329
N           3.5771467     1.0237472     0.9325811
C           3.3658595    -0.0154113     0.1061435
C           4.2644757    -0.2485117    -0.9442263
F           4.0258192    -1.2457570    -1.8309852
C           5.3993336     0.5275787    -1.1204830
H           6.0784583     0.3074383    -1.9382184
24
351_C10H12FN_0-6-19-18 (105,) energy =    -542.8791823
C           0.9179201    -0.2132251    -0.6805832
H           1.3457689     0.0846987    -1.6459481
H           0.3910833     0.6551120    -0.2721796
C           0.0266924    -1.4485168    -0.8792583
H          -0.6326375    -1.3630659    -1.7503735
H          -0.6114408    -1.6003570     0.0022251
C           2.0490267    -0.7063469     0.2720931
H           1.7364569    -0.5085075     1.3016609
C           2.1255855    -2.2572288     0.0534208
H           1.9081995    -2.7616240     1.0015018
H           3.1184488    -2.5892977    -0.2602656
C           1.0460665    -2.5933622    -1.0000665
H           0.6041007    -3.5845439    -0.8509676
H           1.4909905    -2.5792171    -2.0026502
C           5.6486127     1.5691655    -0.1564482
H           6.5468005     2.1762945    -0.2146148
C           4.7773562     1.6814614     0.9257119
H           4.9834598     2.3869387     1.7284552
N           3.6590721     0.9572614     1.0569070
C           3.3397224     0.0622545     0.1083082
C           4.1657442    -0.0766888    -1.0159407
F           3.8149130    -0.9479871    -1.9935566
C           5.3289175     0.6595429    -1.1645058
H           5.9481501     0.5198059    -2.0450216
24
351_C10H12FN_0-6-19-18 (120,) energy =    -542.8794875
C           0.9466203    -0.2269507    -1.0742396
H           1.3586472    -0.1625521    -2.0874292
H           0.5257765     0.7524571    -0.8216027
C          -0.0809806    -1.3698342    -0.9811495
H          -0.7108959    -1.4375233    -1.8744381
H          -0.7520294    -1.1917920    -0.1320692
C           2.0537856    -0.6693185    -0.0893705
H           1.6718901    -0.5494332     0.9312181
C           2.1932872    -2.1838537    -0.3927938
H           2.6330151    -2.7290452     0.4488451
H           2.8548568    -2.3243309    -1.2532335
C           0.7553039    -2.6598917    -0.7380400
H           0.3260864    -3.2531338     0.0764152
H           0.7637917    -3.3049943    -1.6230648
C           5.6722604     1.6212679    -0.0907324
H           6.5780087     2.2167649    -0.0297029
C           4.8368009     1.4726023     1.0150480
H           5.0811383     1.9534122     1.9604268
N           3.7090068     0.7526269     1.0006187
C           3.3366650     0.1276070    -0.1292979
C           4.1395256     0.2406692    -1.2735863
F           3.7738259    -0.3894016    -2.4172522
C           5.3096228     0.9819453    -1.2755575
H           5.9043322     1.0458982    -2.1813674
24
351_C10H12FN_0-6-19-18 (135,) energy =    -542.8786094
C           0.9138359    -0.2507746    -1.1838525
H           1.3478577    -0.2610585    -2.1874727
H           0.4589974     0.7340206    -1.0273034
C          -0.0891771    -1.4080867    -1.0187629
H          -0.6969993    -1.5636582    -1.9162970
H          -0.7830982    -1.1802552    -0.2005443
C           1.9980125    -0.5783307    -0.1321491
H           1.5805860    -0.4036137     0.8663694
C           2.1885777    -2.1070690    -0.3256198
H           2.6385938    -2.5778702     0.5543354
H           2.8667308    -2.2782236    -1.1698132
C           0.7731618    -2.6519546    -0.6560927
H           0.3441854    -3.1893375     0.1963818
H           0.8171718    -3.3656340    -1.4857060
C           5.6999383     1.5762875    -0.0772512
H           6.6334596     2.1245225     0.0045294
C           4.9187151     1.3185537     1.0482076
H           5.2376636     1.6584592     2.0317932
N           3.7587086     0.6540770     1.0078863
C           3.2906709     0.2040679    -0.1696787
C           4.0497627     0.4074575    -1.3310936
F           3.6232511    -0.0931721    -2.5164623
C           5.2501400     1.0995930    -1.3072610
H           5.8049057     1.2432871    -2.2291454
24
351_C10H12FN_0-6-19-18 (150,) energy =    -542.8768848
C           0.9504721    -0.3450580    -1.3293363
H           1.4146507    -0.4771185    -2.3095903
H           0.4990050     0.6535713    -1.3079229
C          -0.0672194    -1.4710908    -1.0662873
H          -0.6545448    -1.7173285    -1.9571100
H          -0.7786246    -1.1546959    -0.2937062
C           1.9888379    -0.5581762    -0.2085191
H           1.5214510    -0.2993713     0.7497587
C           2.1847861    -2.0986437    -0.2378926
H           2.6086590    -2.4729130     0.6990270
H           2.8904997    -2.3535796    -1.0386720
C           0.7780475    -2.6736782    -0.5532124
H           0.3226336    -3.1196740     0.3373976
H           0.8423120    -3.4687396    -1.3036637
C           5.7508618     1.4910373    -0.0406540
H           6.7019441     2.0010198     0.0777978
C           5.0103037     1.0843098     1.0689640
H           5.3788058     1.2662080     2.0769474
N           3.8314618     0.4622017     0.9818009
C           3.2979475     0.2010175    -0.2266112
C           4.0121825     0.5604365    -1.3778742
F           3.5300414     0.2674021    -2.6093411
C           5.2326204     1.2161872    -1.3033222
H           5.7481545     1.4880201    -2.2191079
24
351_C10H12FN_0-6-19-18 (165,) energy =    -542.8760402
C           1.0173635    -0.4302161    -1.4324554
H           1.5279959    -0.6813493    -2.3664244
H           0.5900420     0.5717484    -1.5506165
C          -0.0365771    -1.5038020    -1.1025547
H          -0.5910512    -1.8296279    -1.9888405
H          -0.7728052    -1.0963902    -0.3986996
C           1.9899903    -0.5416725    -0.2431618
H           1.4664013    -0.1895180     0.6565132
C           2.1593973    -2.0779490    -0.1013750
H           2.5270125    -2.3547612     0.8906599
H           2.9022124    -2.4251791    -0.8309608
C           0.7594692    -2.6618050    -0.4315979
H           0.2513113    -3.0126982     0.4729568
H           0.8461234    -3.5270229    -1.0974039
C           5.7793785     1.4536651    -0.0095399
H           6.7412770     1.9379126     0.1279611
C           5.1026687     0.8790250     1.0671183
H           5.5307379     0.9065859     2.0676583
N           3.9169420     0.2770623     0.9554128
C           3.3120964     0.1981260    -0.2460181
C           3.9467612     0.7527377    -1.3646401
F           3.3741136     0.6955207    -2.5900092
C           5.1777717     1.3876866    -1.2621290
H           5.6327722     1.8106475    -2.1523265
24
351_C10H12FN_0-6-19-18 (180,) energy =    -542.8758289
C           1.1132478    -0.5067193    -1.5524842
H           1.6911997    -0.8402928    -2.4213469
H           0.7091456     0.4821210    -1.7912404
C           0.0231788    -1.5399794    -1.2127543
H          -0.4628005    -1.9418397    -2.1080233
H          -0.7620790    -1.0638584    -0.6124497
C           1.9987801    -0.5215542    -0.2922522
H           1.4200710    -0.0747861     0.5305776
C           2.1250776    -2.0385875     0.0062679
H           2.4141603    -2.2260757     1.0431294
H           2.9141543    -2.4604337    -0.6291871
C           0.7444766    -2.6357477    -0.3745457
H           0.1618317    -2.8918068     0.5169336
H           0.8654753    -3.5627367    -0.9450685
C           5.8190509     1.4159805    -0.0440689
H           6.7915563     1.8784214     0.0939265
C           5.2129496     0.6952116     0.9859498
H           5.7069243     0.5861556     1.9499279
N           4.0203582     0.1082581     0.8710548
C           3.3371253     0.1916071    -0.2869377
C           3.8929580     0.9072997    -1.3548162
F           3.2327624     1.0307456    -2.5298559
C           5.1330724     1.5245478    -1.2491790
H           5.5281224     2.0712638    -2.0997310
