24
350_C10H13N_0-6-20-18 (-165,) energy =    -443.6456859
C           1.3259433    -0.4771951    -1.5742482
H           2.0688345    -0.7390663    -2.3371908
H           0.9288312     0.5042441    -1.8473894
C           0.2399093    -1.5672323    -1.4643596
H           0.0290047    -2.0322673    -2.4331147
H          -0.7026593    -1.1278562    -1.1165442
C           2.0055061    -0.4837869    -0.1936448
H           1.3127490    -0.0245970     0.5312889
C           2.0901038    -1.9955102     0.1314923
H           2.2301194    -2.2020817     1.1982036
H           2.9532675    -2.4230056    -0.3949186
C           0.7707133    -2.5927444    -0.4171694
H           0.0426450    -2.7302179     0.3902531
H           0.9380722    -3.5817050    -0.8566955
C           5.6873417     1.6765775    -0.0171087
H           6.6069312     2.2541665    -0.0265898
C           5.3865490     0.7976518     1.0238611
H           6.0720209     0.6689542     1.8577384
C           4.1924846     0.0848096     0.9768294
H           3.9321038    -0.6042975     1.7746736
C           3.3222567     0.2660536    -0.1111736
N           3.6130746     1.1137180    -1.1115185
C           4.7652557     1.7935759    -1.0549074
H           4.9579461     2.4680275    -1.8884615
24
350_C10H13N_0-6-20-18 (-150,) energy =    -443.6456216
C           1.4063091    -0.5593181    -1.6308407
H           2.1871908    -0.9028866    -2.3216466
H           1.0587673     0.4077069    -2.0015214
C           0.2849989    -1.6112851    -1.5067949
H           0.1261819    -2.1517971    -2.4458256
H          -0.6655452    -1.1221182    -1.2627904
C           1.9999268    -0.4736103    -0.2105352
H           1.2744316     0.0652587     0.4220835
C           2.0152414    -1.9507296     0.2399449
H           2.0788688    -2.0729606     1.3268903
H           2.8947806    -2.4460365    -0.1923857
C           0.7140215    -2.5558482    -0.3431970
H          -0.0680710    -2.5997620     0.4231201
H           0.8739350    -3.5844962    -0.6830329
C           5.6571647     1.7229647     0.0048553
H           6.5622616     2.3230076     0.0107189
C           5.4616415     0.6871362     0.9168618
H           6.2172773     0.4536754     1.6627410
C           4.2802465    -0.0484773     0.8575120
H           4.1035557    -0.8599864     1.5560955
C           3.3192828     0.2693010    -0.1147593
N           3.5090729     1.2709946    -0.9921629
C           4.6479704     1.9688866    -0.9255557
H           4.7580440     2.7681730    -1.6577709
24
350_C10H13N_0-6-20-18 (-135,) energy =    -443.6458450
C           1.4493947    -0.6110441    -1.6843122
H           2.2772988    -0.9344887    -2.3279695
H           1.0876284     0.3375400    -2.0872080
C           0.3594240    -1.7102127    -1.6091509
H           0.4187584    -2.3829439    -2.4712972
H          -0.6443808    -1.2714992    -1.6256801
C           1.9726997    -0.4684800    -0.2356802
H           1.2249789     0.1093494     0.3317372
C           1.9361336    -1.9188422     0.2794543
H           2.0069879    -1.9993349     1.3702725
H           2.7809480    -2.4779626    -0.1464566
C           0.6029042    -2.4669438    -0.2686985
H          -0.2050129    -2.2480548     0.4397948
H           0.6244702    -3.5545450    -0.3944439
C           5.6037921     1.7626068     0.0194246
H           6.4957679     2.3816275     0.0411958
C           5.5154490     0.5820572     0.7532866
H           6.3450467     0.2494197     1.3721251
C           4.3436264    -0.1701673     0.6833945
H           4.2501350    -1.0919505     1.2477790
C           3.2873321     0.2773020    -0.1226037
N           3.3723256     1.4217519    -0.8273283
C           4.5010755     2.1325060    -0.7518970
H           4.5253047     3.0490858    -1.3405768
24
350_C10H13N_0-6-20-18 (-120,) energy =    -443.6460543
C           1.5338289    -0.6898755    -1.7207017
H           2.3914036    -1.0848241    -2.2807469
H           1.2283858     0.2366909    -2.2130603
C           0.4076297    -1.7514230    -1.6361435
H           0.4993045    -2.4883322    -2.4410784
H          -0.5788050    -1.2882784    -1.7484096
C           1.9639009    -0.4516570    -0.2519895
H           1.1933335     0.1781597     0.2183665
C           1.8639900    -1.8620558     0.3527984
H           1.8818271    -1.8704848     1.4487315
H           2.7084273    -2.4733930     0.0053318
C           0.5461562    -2.4113286    -0.2305890
H          -0.2931429    -2.1147408     0.4097370
H           0.5375416    -3.5054549    -0.2744636
C           5.5889743     1.7811232     0.0379048
H           6.4759878     2.4066576     0.0723071
C           5.5671352     0.5121447     0.6105546
H           6.4455548     0.1138164     1.1121118
C           4.3971403    -0.2434277     0.5345886
H           4.3550715    -1.2320286     0.9790897
C           3.2766262     0.2909508    -0.1152309
N           3.2967575     1.5220913    -0.6629464
C           4.4239290     2.2337829    -0.5842441
H           4.3944724     3.2224251    -1.0414184
24
350_C10H13N_0-6-20-18 (-105,) energy =    -443.6461131
C           1.6129670    -0.7835671    -1.7372977
H           2.4946748    -1.2322788    -2.2133616
H           1.3556581     0.1104709    -2.3121581
C           0.4610630    -1.8171305    -1.6473775
H           0.5870424    -2.6133888    -2.3886330
H          -0.5060597    -1.3467613    -1.8556526
C           1.9560508    -0.4452752    -0.2638894
H           1.1727097     0.2287720     0.1103898
C           1.7938163    -1.8088030     0.4285364
H           1.7527231    -1.7384353     1.5214486
H           2.6381790    -2.4632742     0.1728030
C           0.4987493    -2.3722856    -0.1911264
H          -0.3687891    -2.0101920     0.3732756
H           0.4641979    -3.4661971    -0.1551535
C           5.5778841     1.7868312     0.0584523
H           6.4617771     2.4158336     0.1067827
C           5.6083455     0.4527089     0.4566049
H           6.5259246     0.0050881     0.8301655
C           4.4399645    -0.3040712     0.3739119
H           4.4402177    -1.3431087     0.6856409
C           3.2672668     0.2946733    -0.1059178
N           3.2375737     1.5875283    -0.4851542
C           4.3644225     2.2999007    -0.4029824
H           4.2928248     3.3400570    -0.7194999
24
350_C10H13N_0-6-20-18 (-90,) energy =    -443.6461895
C           1.6486295    -0.7949753    -1.7231700
H           2.5430674    -1.2871097    -2.1270549
H           1.4309982     0.0593395    -2.3714395
C           0.4754254    -1.8038676    -1.6176911
H           0.6326316    -2.6600657    -2.2823267
H          -0.4699178    -1.3419462    -1.9220807
C           1.9303504    -0.3571002    -0.2622806
H           1.1549143     0.3649855     0.0244074
C           1.6949888    -1.6608879     0.5218267
H           1.5984130    -1.5006492     1.6014687
H           2.5317566    -2.3551350     0.3678902
C           0.4183895    -2.2382773    -0.1221198
H          -0.4660623    -1.8072683     0.3618386
H           0.3469966    -3.3242955    -0.0007356
C           5.5872272     1.8079045     0.1205725
H           6.4798972     2.4216300     0.1962605
C           5.6316909     0.4281150     0.3105479
H           6.5696119    -0.0707682     0.5413182
C           4.4522218    -0.3061934     0.2044973
H           4.4637440    -1.3812723     0.3517429
C           3.2528431     0.3587623    -0.0891646
N           3.2107422     1.6929119    -0.2686609
C           4.3500169     2.3848949    -0.1665783
H           4.2669662     3.4605749    -0.3185649
24
350_C10H13N_0-6-20-18 (-75,) energy =    -443.6465444
C           1.7043070    -0.8876661    -1.7494576
H           2.6141786    -1.4108356    -2.0715864
H           1.5153653    -0.0951600    -2.4806780
C           0.5260129    -1.8869902    -1.6115509
H           0.7117735    -2.7960599    -2.1935085
H          -0.4034525    -1.4544733    -1.9971433
C           1.9210732    -0.3235944    -0.3220864
H           1.1450150     0.4274610    -0.1301288
C           1.6402083    -1.5532859     0.5649187
H           1.4861913    -1.2911949     1.6174604
H           2.4867397    -2.2515798     0.5244492
C           0.3988267    -2.1923274    -0.0887582
H          -0.5093813    -1.7277572     0.3130667
H           0.3244079    -3.2645247     0.1215051
C           5.5857298     1.8045957     0.1764732
H           6.4813232     2.4068343     0.2968977
C           5.6414979     0.4114110     0.1466118
H           6.5912023    -0.1085958     0.2437922
C           4.4584640    -0.3060284    -0.0072651
H           4.4760959    -1.3914187    -0.0352244
C           3.2435159     0.3865193    -0.1283101
N           3.1908776     1.7306119    -0.0978900
C           4.3355895     2.4081689     0.0489007
H           4.2443490     3.4936030     0.0677920
24
350_C10H13N_0-6-20-18 (-60,) energy =    -443.6467861
C           1.0591225    -0.5565448     0.2821653
H           0.8875542     0.4082025    -0.2143692
H           0.9815730    -0.3840307     1.3610650
C           0.0628385    -1.6119322    -0.2378579
H          -0.9233476    -1.1832049    -0.4452817
H          -0.0840536    -2.3878414     0.5225657
C           2.4379442    -1.1167951    -0.1337905
H           2.6735720    -1.9707342     0.5125306
C           2.1612894    -1.6377086    -1.5646384
H           2.9111047    -2.3651193    -1.8930449
H           2.1987163    -0.7999434    -2.2727153
C           0.7278756    -2.2260125    -1.5067567
H           0.7565090    -3.3186268    -1.4350445
H           0.1671195    -1.9881341    -2.4169975
C           5.7680353     1.5117218     0.3194543
H           6.6425215     2.1356027     0.4786103
C           4.7385865     1.9029030    -0.5371196
H           4.7881525     2.8495508    -1.0692548
C           3.6437976     1.0596350    -0.6998537
H           2.8287466     1.3403354    -1.3608633
C           3.6011588    -0.1579854    -0.0016434
N           4.5938791    -0.5341028     0.8237871
C           5.6417809     0.2863143     0.9711162
H           6.4214688    -0.0592079     1.6489295
24
350_C10H13N_0-6-20-18 (-45,) energy =    -443.6465575
C           0.9968729    -0.4897818     0.1931685
H           0.8496953     0.4289990    -0.3896643
H           0.8432913    -0.2323643     1.2469467
C           0.0388619    -1.5901433    -0.3069769
H          -0.9329457    -1.1857612    -0.6092773
H          -0.1549227    -2.3067913     0.4997066
C           2.3982506    -1.0732310    -0.0813956
H           2.5895848    -1.8809315     0.6354338
C           2.2183487    -1.7010780    -1.4871733
H           2.9919452    -2.4428592    -1.7106156
H           2.3017671    -0.9116837    -2.2457375
C           0.7864433    -2.2939621    -1.4796545
H           0.8133069    -3.3777217    -1.3228335
H           0.2859151    -2.1300200    -2.4399236
C           5.8019647     1.4773123     0.2644326
H           6.7019829     2.0728576     0.3851199
C           4.6856106     1.9706083    -0.4104204
H           4.6904356     2.9712443    -0.8352813
C           3.5598229     1.1606255    -0.5300893
H           2.6793014     1.5222701    -1.0525710
C           3.5747901    -0.1272640     0.0282175
N           4.6518603    -0.6012178     0.6805072
C           5.7281379     0.1870763     0.7870308
H           6.5756078    -0.2386057     1.3231567
24
350_C10H13N_0-6-20-18 (-30,) energy =    -443.6461895
C           0.9467350    -0.4271150     0.0857844
H           0.8270268     0.4291532    -0.5910144
H           0.7291838    -0.0736311     1.0998434
C           0.0227280    -1.5767926    -0.3665132
H          -0.9342045    -1.2101669    -0.7526209
H          -0.2087549    -2.2237710     0.4877668
C           2.3589765    -1.0244295    -0.0543817
H           2.4990653    -1.7789515     0.7304345
C           2.2641265    -1.7670649    -1.4121893
H           3.0541844    -2.5154942    -1.5272870
H           2.3866049    -1.0395448    -2.2254442
C           0.8363761    -2.3693794    -1.4343393
H           0.8583122    -3.4362932    -1.1871784
H           0.3886971    -2.2886774    -2.4305783
C           5.8249315     1.4497419     0.2163532
H           6.7465173     2.0171153     0.3058316
C           4.6520755     2.0329171    -0.2592419
H           4.6317075     3.0790515    -0.5542538
C           3.4994667     1.2550156    -0.3479432
H           2.5749095     1.6903345    -0.7129935
C           3.5469388    -0.0911684     0.0426347
N           4.6803425    -0.6523038     0.5056998
C           5.7795100     0.1046528     0.5833897
H           6.6713794    -0.3917588     0.9644791
24
350_C10H13N_0-6-20-18 (-15,) energy =    -443.6461110
C           0.9279876    -0.3675837    -0.0299759
H           0.8593530     0.4281546    -0.7840787
H           0.6609185     0.0736737     0.9369758
C           0.0112170    -1.5410073    -0.4339879
H          -0.9189729    -1.1972302    -0.8983888
H          -0.2737270    -2.1124606     0.4572805
C           2.3345743    -0.9890057    -0.0485591
H           2.4177703    -1.6857505     0.7974309
C           2.2991139    -1.8361347    -1.3458709
H           3.0875183    -2.5938811    -1.3618365
H           2.4669604    -1.1747031    -2.2060805
C           0.8677394    -2.4278865    -1.3887058
H           0.8653324    -3.4697604    -1.0502051
H           0.4704334    -2.4301184    -2.4092197
C           5.8344523     1.4409412     0.1770688
H           6.7671780     1.9929380     0.2446296
C           4.6273064     2.0779513    -0.0993245
H           4.5893276     3.1533524    -0.2540120
C           3.4616768     1.3157993    -0.1707390
H           2.5097495     1.7931344    -0.3775176
C           3.5332938    -0.0682780     0.0370212
N           4.7012035    -0.6826388     0.3105167
C           5.8102004     0.0591365     0.3736145
H           6.7301587    -0.4799782     0.5978436
24
350_C10H13N_0-6-20-18 (0,) energy =    -443.6460576
C           0.9367907    -0.3213512    -0.1396640
H           0.9324045     0.4188015    -0.9518407
H           0.6319769     0.1963814     0.7770655
C           0.0078013    -1.4990588    -0.5013739
H          -0.8843023    -1.1687038    -1.0436499
H          -0.3437940    -1.9886829     0.4145206
C           2.3266955    -0.9730303    -0.0439988
H           2.3507946    -1.6020468     0.8591071
C           2.3287230    -1.9199293    -1.2689020
H           3.0992389    -2.6909552    -1.1907562
H           2.5500712    -1.3318913    -2.1692752
C           0.8872067    -2.4831237    -1.3319645
H           0.8424945    -3.4909817    -0.9046348
H           0.5393629    -2.5675160    -2.3669155
C           5.8410894     1.4386970     0.1529483
H           6.7765943     1.9875650     0.2058560
C           4.6153711     2.0939204     0.0691712
H           4.5643151     3.1797836     0.0561816
C           3.4471485     1.3346851     0.0047591
H           2.4806097     1.8235559    -0.0542213
C           3.5357350    -0.0636075     0.0244387
N           4.7224086    -0.6961561     0.1125955
C           5.8331927     0.0426258     0.1721058
H           6.7691913    -0.5109398     0.2413611
24
350_C10H13N_0-6-20-18 (15,) energy =    -443.6458512
C           0.9463718    -0.2765587    -0.2435992
H           1.0079544     0.4147320    -1.0955243
H           0.6068998     0.3022543     0.6231040
C           0.0021236    -1.4508192    -0.5761478
H          -0.8418056    -1.1350085    -1.1983859
H          -0.4243985    -1.8572263     0.3486129
C           2.3149035    -0.9509025    -0.0356699
H           2.2827009    -1.5000569     0.9193592
C           2.3474344    -1.9963696    -1.1751526
H           3.0862304    -2.7805188    -0.9953028
H           2.6370708    -1.4932915    -2.1066703
C           0.8942757    -2.5225378    -1.2727765
H           0.7937378    -3.4905587    -0.7693868
H           0.6004160    -2.6822226    -2.3155832
C           5.8376590     1.4562740     0.1186140
H           6.7734087     2.0061700     0.1540548
C           4.6077425     2.0998675     0.2328385
H           4.5544447     3.1779043     0.3626581
C           3.4405758     1.3391023     0.1791003
H           2.4710239     1.8176034     0.2680981
C           3.5327974    -0.0495548     0.0096281
N           4.7230954    -0.6708844    -0.0944924
C           5.8336665     0.0699467    -0.0423660
H           6.7727750    -0.4750701    -0.1333862
24
350_C10H13N_0-6-20-18 (30,) energy =    -443.6455983
C           0.9674420    -0.2577052    -0.3672941
H           1.0929816     0.3705752    -1.2597579
H           0.5918291     0.3873692     0.4349885
C           0.0165394    -1.4358148    -0.6641758
H          -0.7797568    -1.1534410    -1.3608700
H          -0.4759070    -1.7575505     0.2612588
C           2.3116539    -0.9384811    -0.0354249
H           2.2159394    -1.3986588     0.9624670
C           2.3795626    -2.0771929    -1.0760355
H           3.0829126    -2.8622605    -0.7893050
H           2.7404651    -1.6651385    -2.0264040
C           0.9209161    -2.5782289    -1.2168458
H           0.7658181    -3.4996626    -0.6444645
H           0.6843207    -2.8169397    -2.2591449
C           5.8274291     1.4849751     0.0814242
H           6.7582247     2.0441006     0.0983491
C           4.6094627     2.0842298     0.3982108
H           4.5620019     3.1351324     0.6724185
C           3.4491604     1.3146259     0.3565834
H           2.4886746     1.7579315     0.5986471
C           3.5332720    -0.0395467    -0.0024557
N           4.7101137    -0.6162957    -0.3052907
C           5.8166425     0.1336033    -0.2623848
H           6.7451046    -0.3761912    -0.5176382
24
350_C10H13N_0-6-20-18 (45,) energy =    -443.6456474
C           0.9893757    -0.2435629    -0.4991212
H           1.1858336     0.2981406    -1.4342216
H           0.5915146     0.4817376     0.2191940
C           0.0229822    -1.4199184    -0.7461304
H          -0.7265101    -1.1813839    -1.5081083
H          -0.5270996    -1.6481314     0.1747599
C           2.2944630    -0.9280069    -0.0315196
H           2.1238713    -1.2926410     0.9955527
C           2.3872010    -2.1497756    -0.9655736
H           3.0497208    -2.9270427    -0.5755771
H           2.8145145    -1.8301617    -1.9227889
C           0.9243850    -2.6267513    -1.1462073
H           0.7112727    -3.4907778    -0.5067797
H           0.7393426    -2.9502168    -2.1760183
C           5.8036103     1.5078887     0.0494223
H           6.7275056     2.0785871     0.0455928
C           4.6208216     2.0363766     0.5672751
H           4.5959794     3.0407623     0.9824900
C           3.4690612     1.2559486     0.5424916
H           2.5353758     1.6416560     0.9406041
C           3.5238716    -0.0387492    -0.0001023
N           4.6641689    -0.5457803    -0.4969780
C           5.7657469     0.2148026    -0.4678480
H           6.6655129    -0.2389129    -0.8819209
24
350_C10H13N_0-6-20-18 (60,) energy =    -443.6460659
C           1.0171763    -0.2161366    -0.6404730
H           1.2949929     0.2299981    -1.6048004
H           0.6112333     0.5869772    -0.0154673
C           0.0241000    -1.3774615    -0.8462157
H          -0.6698475    -1.1831950    -1.6708292
H          -0.5870455    -1.5077082     0.0551132
C           2.2636225    -0.9014939    -0.0285725
H           2.0113004    -1.1653708     1.0116419
C           2.3696304    -2.1971780    -0.8510708
H           2.9760076    -2.9610543    -0.3545870
H           2.8687968    -1.9721904    -1.7990586
C           0.9037589    -2.6419020    -1.0861563
H           0.6190374    -3.4417916    -0.3933908
H           0.7714091    -3.0447046    -2.0959371
C           5.7642836     1.5447548     0.0239969
H           6.6791297     2.1293865     0.0009025
C           4.6394223     1.9766852     0.7289578
H           4.6526519     2.9164483     1.2752529
C           3.4983713     1.1819493     0.7208968
H           2.6082261     1.4881656     1.2636444
C           3.5045049    -0.0294465     0.0082564
N           4.5869534    -0.4429241    -0.6685972
C           5.6808059     0.3305497    -0.6529610
H           6.5351274    -0.0469044    -1.2136845
24
350_C10H13N_0-6-20-18 (75,) energy =    -443.6467630
C           1.0542521    -0.2052830    -0.7592416
H           1.4125306     0.1534359    -1.7332767
H           0.6426045     0.6580664    -0.2244842
C           0.0362667    -1.3483257    -0.9423915
H          -0.5932380    -1.1993074    -1.8260807
H          -0.6383046    -1.3879856    -0.0785454
C           2.2336290    -0.8766768    -0.0117758
H           1.9097597    -1.0401378     1.0280031
C           2.3457693    -2.2386728    -0.7187793
H           2.8833659    -2.9785945    -0.1162154
H           2.9189970    -2.1065028    -1.6411139
C           0.8838652    -2.6542923    -1.0234325
H           0.5230100    -3.3893038    -0.2952202
H           0.8066937    -3.1289635    -2.0074185
C           5.7406389     1.5575612    -0.0016550
H           6.6501004     2.1492513    -0.0464210
C           4.7018996     1.8808503     0.8728180
H           4.7787980     2.7405014     1.5337554
C           3.5647043     1.0801967     0.8857258
H           2.7388618     1.3001342     1.5573609
C           3.4893087    -0.0276030     0.0250309
N           4.4871715    -0.3335075    -0.8186554
C           5.5786210     0.4426517    -0.8210919
H           6.3647364     0.1525805    -1.5173073
24
350_C10H13N_0-6-20-18 (90,) energy =    -443.6476582
C           1.0806323    -0.2040356    -0.8712947
H           1.5092920     0.0738751    -1.8429381
H           0.6522871     0.7024890    -0.4291012
C           0.0571768    -1.3452425    -1.0343599
H          -0.5120178    -1.2557647    -1.9657640
H          -0.6719142    -1.3122242    -0.2157179
C           2.1989868    -0.8286251    -0.0001693
H           1.8148513    -0.9037208     1.0282201
C           2.3308495    -2.2446829    -0.5922835
H           2.8116682    -2.9428207     0.1017703
H           2.9645897    -2.1872568    -1.4821843
C           0.8854315    -2.6637842    -0.9635593
H           0.4648571    -3.3391218    -0.2100470
H           0.8656128    -3.2081381    -1.9137487
C           5.7219508     1.5783971    -0.0279081
H           6.6301318     2.1701726    -0.0928769
C           4.7849771     1.7870723     0.9838268
H           4.9418221     2.5553748     1.7367037
C           3.6431390     0.9912416     1.0142722
H           2.8945140     1.1236491     1.7909980
C           3.4644848     0.0030498     0.0341511
N           4.3642409    -0.1903983    -0.9449337
C           5.4592087     0.5776978    -0.9627781
H           6.1638989     0.3812747    -1.7701309
24
350_C10H13N_0-6-20-18 (105,) energy =    -443.6485032
C           1.0874300    -0.2197092    -0.9842767
H           1.5771685    -0.0127364    -1.9440388
H           0.6336215     0.7149798    -0.6359825
C           0.0741342    -1.3728194    -1.1258629
H          -0.4365679    -1.3528205    -2.0945187
H          -0.7040835    -1.2837835    -0.3582113
C           2.1514503    -0.7725676    -0.0061912
H           1.7177629    -0.7752984     1.0044593
C           2.3161368    -2.2293300    -0.4888760
H           2.7594185    -2.8752681     0.2771281
H           2.9948913    -2.2272898    -1.3476610
C           0.8942377    -2.6802570    -0.9086187
H           0.4315623    -3.2964372    -0.1294487
H           0.9273496    -3.2965164    -1.8134056
C           5.7130863     1.5743400    -0.0352031
H           6.6289532     2.1534558    -0.1060799
C           4.8720637     1.6700796     1.0722213
H           5.1143272     2.3339741     1.8982072
C           3.7128704     0.8978606     1.1032159
H           3.0362207     0.9461398     1.9521379
C           3.4237294     0.0465517     0.0275251
N           4.2326357    -0.0390421    -1.0435038
C           5.3428057     0.7048257    -1.0618129
H           5.9702203     0.6009582    -1.9464590
24
350_C10H13N_0-6-20-18 (120,) energy =    -443.6488853
C           1.0840788    -0.2390165    -1.0857423
H           1.6203484    -0.0917818    -2.0305014
H           0.6019641     0.7105351    -0.8267130
C           0.0902738    -1.4127724    -1.1943388
H          -0.3680342    -1.4703776    -2.1874060
H          -0.7290282    -1.2790835    -0.4776518
C           2.1036539    -0.7031608    -0.0213632
H           1.6303039    -0.6424451     0.9690059
C           2.3055913    -2.1910798    -0.3925134
H           2.7249199    -2.7757992     0.4338602
H           3.0183683    -2.2380348    -1.2230096
C           0.9090893    -2.6904251    -0.8393008
H           0.4171525    -3.2495383    -0.0353714
H           0.9892792    -3.3748503    -1.6905447
C           5.7150416     1.5652532    -0.0395860
H           6.6430680     2.1248370    -0.1088833
C           4.9623792     1.5427167     1.1329544
H           5.2888194     2.0895023     2.0139632
C           3.7802387     0.8050171     1.1575212
H           3.1691724     0.7655691     2.0551374
C           3.3804462     0.1080716     0.0094081
N           4.1083492     0.1310860    -1.1218356
C           5.2396316     0.8415395    -1.1344586
H           5.7971694     0.8322242    -2.0704859
24
350_C10H13N_0-6-20-18 (135,) energy =    -443.6485835
C           1.0859813    -0.2643070    -1.1869526
H           1.6630261    -0.1754912    -2.1135970
H           0.5813994     0.6941152    -1.0191381
C           0.1088333    -1.4558256    -1.2534679
H          -0.2948904    -1.5971004    -2.2617202
H          -0.7492514    -1.2777436    -0.5942304
C           2.0598247    -0.6332486    -0.0484502
H           1.5467212    -0.5132097     0.9162843
C           2.2925020    -2.1441642    -0.3035230
H           2.6942964    -2.6625699     0.5742731
H           3.0306470    -2.2415258    -1.1081844
C           0.9176690    -2.6921747    -0.7568655
H           0.3987711    -3.1813056     0.0752946
H           1.0334628    -3.4489286    -1.5400564
C           5.7223869     1.5520895    -0.0325408
H           6.6631107     2.0911852    -0.0925745
C           5.0470194     1.3948016     1.1764436
H           5.4500276     1.8102843     2.0965892
C           3.8426042     0.6942764     1.1857941
H           3.2887486     0.5546142     2.1102138
C           3.3417735     0.1701674    -0.0139395
N           3.9986152     0.3167349    -1.1785148
C           5.1518068     0.9919035    -1.1763059
H           5.6476221     1.0897009    -2.1415330
24
350_C10H13N_0-6-20-18 (150,) energy =    -443.6477774
C           1.1178691    -0.3162229    -1.2961750
H           1.7337416    -0.3007958    -2.2008964
H           0.6069808     0.6513499    -1.2335645
C           0.1433285    -1.5121213    -1.3044326
H          -0.2125347    -1.7415761    -2.3144680
H          -0.7449794    -1.2812393    -0.7043100
C           2.0369149    -0.5833955    -0.0895571
H           1.4791636    -0.3950660     0.8393541
C           2.2832622    -2.1109883    -0.2089903
H           2.6545081    -2.5538053     0.7219935
H           3.0501649    -2.2743250    -0.9761588
C           0.9264231    -2.6988614    -0.6651842
H           0.3739071    -3.1084300     0.1880915
H           1.0700711    -3.5250637    -1.3695497
C           5.7304317     1.5506711    -0.0248158
H           6.6771304     2.0807058    -0.0701198
C           5.1286656     1.2328421     1.1924366
H           5.5980391     1.5086499     2.1333594
C           3.9120797     0.5558994     1.1818767
H           3.4135211     0.2959525     2.1119765
C           3.3235171     0.2140123    -0.0450721
N           3.9094031     0.5128529    -1.2169150
C           5.0762515     1.1661463    -1.1948501
H           5.5114405     1.3932391    -2.1674763
24
350_C10H13N_0-6-20-18 (165,) energy =    -443.6468529
C           1.1673894    -0.3495127    -1.3996959
H           1.8224735    -0.4266976    -2.2731553
H           0.6819991     0.6312956    -1.4503742
C           0.1624910    -1.5194668    -1.3497681
H          -0.1501169    -1.8316403    -2.3518557
H          -0.7474500    -1.2159607    -0.8183636
C           2.0175589    -0.5289559    -0.1309711
H           1.4136664    -0.2563424     0.7479419
C           2.2321853    -2.0662390    -0.1029691
H           2.5487875    -2.4339102     0.8794521
H           3.0285022    -2.3179439    -0.8148267
C           0.8817842    -2.6613575    -0.5687895
H           0.2803095    -2.9771712     0.2912236
H           1.0338277    -3.5522550    -1.1872460
C           5.7283371     1.5767780    -0.0201084
H           6.6735303     2.1105441    -0.0509180
C           5.2135352     1.0716062     1.1746704
H           5.7517995     1.1999786     2.1103773
C           3.9950991     0.4010168     1.1474728
H           3.5627338    -0.0006837     2.0602625
C           3.3161987     0.2501171    -0.0729474
N           3.8153105     0.7323568    -1.2218955
C           4.9876615     1.3782603    -1.1834352
H           5.3508491     1.7575618    -2.1379260
24
350_C10H13N_0-6-20-18 (180,) energy =    -443.6461193
C           1.2405588    -0.4189474    -1.4900782
H           1.9402554    -0.5927313    -2.3148604
H           0.7945426     0.5662578    -1.6588560
C           0.1973475    -1.5521438    -1.3986691
H          -0.0681785    -1.9435770    -2.3863521
H          -0.7308196    -1.1773071    -0.9508252
C           2.0081927    -0.5092709    -0.1614355
H           1.3550900    -0.1455960     0.6482341
C           2.1712766    -2.0412047     0.0176432
H           2.4113936    -2.3314668     1.0463862
H           3.0013487    -2.3809732    -0.6149829
C           0.8326408    -2.6391331    -0.4788014
H           0.1712485    -2.8616177     0.3663006
H           0.9929969    -3.5852695    -1.0064099
C           5.6963249     1.6373894    -0.0142959
H           6.6271486     2.1963806    -0.0325068
C           5.2894560     0.9350224     1.1214808
H           5.9001330     0.9309459     2.0208263
C           4.0858685     0.2395107     1.0831511
H           3.7383999    -0.3144707     1.9510466
C           3.3128341     0.2609558    -0.0902654
N           3.7061971     0.9362051    -1.1812852
C           4.8671675     1.6032041    -1.1328324
H           5.1439915     2.1387432    -2.0402391
