31
212_C14H14O2S_0-9-17-26 (-165,) energy =   -1090.4874341
C           0.5003363     0.2236709    -1.3686087
C           1.0760601     0.4608680    -2.7500662
H           0.2716910     0.7444618    -3.4351091
H           1.5708188    -0.4330129    -3.1382693
H           1.8210027     1.2614224    -2.7494615
C          -0.8923615     0.1493985    -1.2544598
H          -1.4917844     0.2488293    -2.1552601
C          -1.5127909    -0.0377675    -0.0251163
H          -2.5957579    -0.0981661     0.0395421
C           1.2719270     0.0848868    -0.1864093
C          -0.7388795    -0.1184232     1.1246561
H          -1.2210149    -0.2279510     2.0922478
C           0.6614454    -0.0407154     1.0818470
C           1.3775714    -0.0655045     2.4166137
H           0.6389597    -0.0198929     3.2219106
H           2.0501371     0.7874390     2.5403137
H           1.9719321    -0.9715026     2.5648988
S           3.0813189     0.2074296    -0.4661287
O           3.4059964    -0.7356187    -1.5523947
O           3.4072395     1.6408015    -0.6014248
C           5.6038609    -1.3298807     3.0230045
H           6.2261813    -1.6948122     3.8354694
C           5.4662789     0.0445242     2.8162171
H           5.9857413     0.7480802     3.4605593
C           4.6666947     0.5190981     1.7755533
H           4.5551688     1.5811214     1.5839519
C           4.0111097    -0.3993083     0.9563266
C           4.1659115    -1.7765038     1.1292966
H           3.6852940    -2.4675486     0.4445856
C           4.9590128    -2.2389866     2.1790926
H           5.0852899    -3.3073230     2.3298328
31
212_C14H14O2S_0-9-17-26 (-150,) energy =   -1090.4889646
C           0.5490783     0.1063160    -1.3678070
C           1.0922454     0.3071562    -2.7681169
H           0.2560561     0.3957682    -3.4682683
H           1.7273218    -0.5248655    -3.0814714
H           1.7027674     1.2103127    -2.8504437
C          -0.8261804    -0.1332674    -1.2460391
H          -1.4244467    -0.1818703    -2.1517108
C          -1.4334483    -0.2949460    -0.0070348
H          -2.5010929    -0.4861948     0.0583871
C           1.3167259     0.1461434    -0.1768247
C          -0.6736271    -0.1674620     1.1490859
H          -1.1524712    -0.2360670     2.1221924
C           0.7030798     0.0860746     1.0967307
C           1.4063891     0.3254142     2.4165424
H           0.6592609     0.4998417     3.1962825
H           2.0547232     1.2046593     2.3770479
H           2.0194770    -0.5248774     2.7304725
S           3.0984559     0.5182199    -0.3558120
O           3.5762182    -0.1270810    -1.5906203
O           3.2784813     1.9701048    -0.1628046
C           5.5390404    -1.5700949     2.9018758
H           6.1417839    -2.0648497     3.6584760
C           5.5318154    -0.1762031     2.8198007
H           6.1314139     0.4143249     3.5067206
C           4.7541034     0.4646772     1.8540345
H           4.7307639     1.5460738     1.7695353
C           3.9923809    -0.3077637     0.9789804
C           4.0137859    -1.7033869     1.0287575
H           3.4425594    -2.2861730     0.3127339
C           4.7822068    -2.3328347     2.0073865
H           4.8001901    -3.4174871     2.0642755
31
212_C14H14O2S_0-9-17-26 (-135,) energy =   -1090.4913303
C           0.6190094     0.0162345    -1.3292969
C           1.1822543     0.1082397    -2.7334275
H           0.3726366    -0.0399521    -3.4544300
H           1.9550268    -0.6424122    -2.9154446
H           1.6467521     1.0771899    -2.9313175
C          -0.7355481    -0.3293791    -1.2138242
H          -1.2979778    -0.5228011    -2.1230171
C          -1.3679956    -0.4187800     0.0195229
H          -2.4183982    -0.6913293     0.0761782
C           1.3362997     0.2485821    -0.1296140
C          -0.6581363    -0.1260339     1.1780983
H          -1.1578477    -0.1533030     2.1427118
C           0.6931673     0.2348304     1.1328487
C           1.3551466     0.6110350     2.4419398
H           0.5864490     0.8036083     3.1959267
H           1.9658467     1.5114103     2.3427312
H           1.9986694    -0.1886093     2.8237673
S           3.0828705     0.7727448    -0.2195694
O           3.6331408     0.3907066    -1.5300400
O           3.1683807     2.1775488     0.2232962
C           5.4937803    -1.7427299     2.7492401
H           6.0891075    -2.3362095     3.4376074
C           5.5432129    -0.3486931     2.8097263
H           6.1778367     0.1438329     3.5410199
C           4.7753256     0.4187233     1.9323079
H           4.7912294     1.5030699     1.9640584
C           3.9661795    -0.2280185     0.9993761
C           3.9246262    -1.6212969     0.9124973
H           3.3056396    -2.1062895     0.1636077
C           4.6851787    -2.3785465     1.8025986
H           4.6534148    -3.4632026     1.7520062
31
212_C14H14O2S_0-9-17-26 (-120,) energy =   -1090.4925593
C           0.4026180     0.8636944     1.4423720
C           0.7213043     1.5250955     2.7690575
H           0.0048389     2.3326764     2.9470706
H           1.7302791     1.9435063     2.7936044
H           0.6657028     0.8214850     3.6026872
C          -0.6891390     1.3832278     0.7296296
H          -1.2314073     2.2226447     1.1558243
C          -1.0913567     0.8525898    -0.4888282
H          -1.9408478     1.2788408    -1.0156898
C           1.0952270    -0.2283716     0.8634041
C          -0.4108554    -0.2349833    -1.0241768
H          -0.7326474    -0.6650512    -1.9686632
C           0.6822626    -0.8065726    -0.3641180
C           1.3361843    -2.0095774    -1.0097426
H           0.7683221    -2.3058037    -1.8960357
H           1.3824634    -2.8573659    -0.3226370
H           2.3615306    -1.7960086    -1.3300070
S           2.5012824    -0.9973566     1.7374892
O           2.8139813    -0.2148525     2.9435127
O           2.2413123    -2.4425994     1.8660253
C           6.1847751    -0.4870779    -0.9361223
H           7.0741280    -0.3659316    -1.5483829
C           5.8153529    -1.7565723    -0.4880697
H           6.4162657    -2.6234197    -0.7480319
C           4.6705437    -1.9180660     0.2946988
H           4.3594136    -2.8945887     0.6506689
C           3.9099040    -0.7956980     0.6212401
C           4.2770843     0.4817717     0.1921343
H           3.6814031     1.3465530     0.4686500
C           5.4160464     0.6303683    -0.5978900
H           5.7070619     1.6181085    -0.9438495
31
212_C14H14O2S_0-9-17-26 (-105,) energy =   -1090.4926755
C           0.5157907     0.8759915     1.3416269
C           0.9463263     1.6146092     2.5946423
H           0.3639088     2.5364869     2.6843146
H           2.0071856     1.8760893     2.5908048
H           0.7885381     1.0136872     3.4930682
C          -0.5515018     1.4356232     0.6230816
H          -0.9941018     2.3576487     0.9895397
C          -1.0515745     0.8438408    -0.5295249
H          -1.8795401     1.3026849    -1.0632491
C           1.0705394    -0.3310367     0.8474906
C          -0.4864668    -0.3362239    -0.9979659
H          -0.8727561    -0.8012576    -1.9007484
C           0.5795472    -0.9499992    -0.3301901
C           1.1241771    -2.2316017    -0.9253672
H           0.6287940    -2.4299210    -1.8801097
H           0.9640349    -3.0826992    -0.2599759
H           2.2009035    -2.1761935    -1.1139499
S           2.4707736    -1.1266228     1.7073214
O           2.6985077    -0.4455752     2.9910430
O           2.2700830    -2.5851891     1.6960768
C           6.1860205    -0.2486286    -0.8278815
H           7.0785184    -0.0441964    -1.4127772
C           5.8086637    -1.5674352    -0.5713652
H           6.4065739    -2.3907128    -0.9519086
C           4.6603415    -1.8344614     0.1772066
H           4.3475976    -2.8505569     0.3935987
C           3.9037700    -0.7678682     0.6629306
C           4.2781298     0.5564495     0.4228082
H           3.6865198     1.3762649     0.8180724
C           5.4215176     0.8117453    -0.3320214
H           5.7191679     1.8377310    -0.5289234
31
212_C14H14O2S_0-9-17-26 (-90,) energy =   -1090.4911734
C           0.6057452     0.8787896     1.0897195
C           1.2359052     1.7861590     2.1275435
H           0.7342299     2.7580103     2.1082479
H           2.2980708     1.9587418     1.9329850
H           1.1628302     1.3699918     3.1333984
C          -0.5009245     1.3967762     0.4035143
H          -0.8454241     2.3957307     0.6557777
C          -1.1580572     0.6686190    -0.5792006
H          -2.0157270     1.0930445    -1.0940823
C           1.0437701    -0.4273613     0.7497112
C          -0.7078640    -0.6042444    -0.9027799
H          -1.2163634    -1.1751880    -1.6745635
C           0.3919234    -1.1858449    -0.2568832
C           0.7713424    -2.5816940    -0.7106924
H           0.1278636    -2.8756005    -1.5450294
H           0.6676034    -3.3142488     0.0910522
H           1.8070257    -2.6382235    -1.0562444
S           2.4451161    -1.1692958     1.6737464
O           2.5238274    -0.5307632     2.9964659
O           2.3418196    -2.6337859     1.5832009
C           6.2476275     0.0261569    -0.5975166
H           7.1497207     0.3084855    -1.1332494
C           5.5585258    -1.1342650    -0.9573794
H           5.9275155    -1.7607643    -1.7645065
C           4.4015708    -1.5026940    -0.2710449
H           3.8842242    -2.4241849    -0.5122784
C           3.9372072    -0.6929170     0.7681195
C           4.6350025     0.4535460     1.1548484
H           4.2938177     1.0312367     2.0064262
C           5.7918158     0.8125717     0.4624844
H           6.3426772     1.7004719     0.7595449
31
212_C14H14O2S_0-9-17-26 (-75,) energy =   -1090.4926994
C           0.7511050     0.8437281     0.8550184
C           1.5183370     1.8009446     1.7430051
H           1.1413392     2.8171019     1.5960037
H           2.5894959     1.8070711     1.5187735
H           1.4182957     1.5359625     2.7978903
C          -0.3396380     1.3613353     0.1470294
H          -0.5859115     2.4129565     0.2650477
C          -1.1048822     0.5599550    -0.6917934
H          -1.9494597     0.9818402    -1.2299637
C           1.0626192    -0.5292718     0.6851562
C          -0.7846743    -0.7832039    -0.8398135
H          -1.3844254    -1.4099416    -1.4939078
C           0.2959844    -1.3677688    -0.1621687
C           0.5187471    -2.8491483    -0.4001872
H          -0.1870015    -3.1994230    -1.1593448
H           0.3684538    -3.4326165     0.5110392
H           1.5318943    -3.0774034    -0.7393721
S           2.4647697    -1.2088764     1.6372650
O           2.4470261    -0.6281662     2.9901290
O           2.4858761    -2.6719729     1.4871508
C           6.2625680     0.2953074    -0.4395070
H           7.1731591     0.6368603    -0.9238790
C           5.3288594    -0.4526497    -1.1629948
H           5.5135556    -0.6939004    -2.2059222
C           4.1608607    -0.8977711    -0.5466270
H           3.4373687    -1.4869118    -1.1015597
C           3.9338347    -0.5749337     0.7934591
C           4.8595264     0.1670522     1.5271653
H           4.6568585     0.3888784     2.5696553
C           6.0303938     0.6014522     0.9021065
H           6.7590442     1.1779861     1.4649223
31
212_C14H14O2S_0-9-17-26 (-60,) energy =   -1090.4924332
C           0.6193719     0.7361860     0.7047899
C           1.4856452     1.6468502     1.5488926
H           1.0552948     2.6520492     1.5651400
H           2.5018745     1.7297681     1.1482739
H           1.5690704     1.2854348     2.5760416
C          -0.4011527     1.3306344    -0.0454072
H          -0.5185121     2.4100047    -0.0024547
C          -1.2637504     0.5686209    -0.8248416
H          -2.0514749     1.0499299    -1.3981963
C           0.7597135    -0.6732390     0.6383279
C          -1.1238263    -0.8126556    -0.8553791
H          -1.8094376    -1.4098067    -1.4501052
C          -0.1189820    -1.4739146    -0.1326169
C          -0.0924101    -2.9863164    -0.2363773
H          -0.9264155    -3.3162684    -0.8631169
H          -0.1808758    -3.4674766     0.7401910
H           0.8386742    -3.3559172    -0.6725637
S           2.1055132    -1.4461198     1.5994785
O           1.9773030    -1.0306005     3.0083703
O           2.1742139    -2.8799449     1.2770949
C           6.0513164     0.2552276     0.0151689
H           7.0001094     0.6355376    -0.3531291
C           5.1369140    -0.3133190    -0.8762652
H           5.3740391    -0.3775120    -1.9344111
C           3.9203509    -0.8082012    -0.4086389
H           3.2102641    -1.2623762    -1.0931764
C           3.6254014    -0.7091264     0.9529823
C           4.5309141    -0.1491800     1.8535805
H           4.2717654    -0.0949647     2.9057108
C           5.7510362     0.3332382     1.3762956
H           6.4646196     0.7709183     2.0686431
31
212_C14H14O2S_0-9-17-26 (-45,) energy =   -1090.4907802
C           0.7302789     0.6861393     0.5529514
C           1.6747514     1.5912063     1.3171435
H           1.2006538     2.5660894     1.4648515
H           2.6138427     1.7602710     0.7799152
H           1.9205261     1.1840797     2.3005884
C          -0.3029551     1.2982750    -0.1662546
H          -0.3525546     2.3837898    -0.1842176
C          -1.2669051     0.5476471    -0.8285935
H          -2.0617306     1.0425311    -1.3801176
C           0.7811047    -0.7282362     0.5693474
C          -1.2271427    -0.8392461    -0.7551146
H          -2.0003078    -1.4270087    -1.2422713
C          -0.2125461    -1.5156802    -0.0628338
C          -0.2940227    -3.0286549    -0.0319087
H          -1.2546669    -3.3441017    -0.4504052
H          -0.2126162    -3.4286260     0.9815432
H           0.5091061    -3.4928517    -0.6094833
S           2.1678816    -1.5641681     1.4157709
O           2.0162038    -1.3611786     2.8695214
O           2.2992424    -2.9282693     0.8788164
C           6.0909121     0.4443677     0.1798428
H           7.0365597     0.8955564    -0.1076909
C           5.2301624    -0.0525993    -0.8032929
H           5.5063843     0.0080782    -1.8521334
C           4.0189347    -0.6394874    -0.4393001
H           3.3528243    -1.0450237    -1.1947813
C           3.6726208    -0.6974559     0.9124679
C           4.5263038    -0.2160298     1.9036047
H           4.2307455    -0.2915766     2.9447434
C           5.7430224     0.3566610     1.5291425
H           6.4172511     0.7348908     2.2923358
31
212_C14H14O2S_0-9-17-26 (-30,) energy =   -1090.4883587
C           0.7219810     0.6790923     0.4112713
C           1.7604145     1.5972596     1.0232944
H           1.3382538     2.6018519     1.1203128
H           2.6675407     1.6780463     0.4167656
H           2.0587715     1.2672994     2.0216259
C          -0.3789498     1.2914343    -0.2030418
H          -0.4020096     2.3762615    -0.2636532
C          -1.4399324     0.5479397    -0.7040572
H          -2.2827501     1.0463455    -1.1751662
C           0.7390551    -0.7329217     0.4771912
C          -1.4337835    -0.8346281    -0.5632294
H          -2.2817468    -1.4179140    -0.9117859
C          -0.3577805    -1.5092118     0.0270229
C          -0.4732226    -3.0138094     0.1653014
H          -1.5102302    -3.3129295    -0.0154687
H          -0.1878961    -3.3607355     1.1619473
H           0.1725301    -3.5365905    -0.5445531
S           2.1592222    -1.6654682     1.1599336
O           1.9818134    -1.7617309     2.6217627
O           2.3155565    -2.8870180     0.3513230
C           6.1098425     0.5288599     0.4530190
H           7.0621479     1.0254527     0.2884899
C           5.3682711     0.0679650    -0.6391018
H           5.7453250     0.2002051    -1.6492533
C           4.1498908    -0.5781701    -0.4335215
H           3.5782949    -0.9657376    -1.2709239
C           3.6755831    -0.7280021     0.8717190
C           4.4125010    -0.2900580     1.9706219
H           4.0245889    -0.4505366     2.9710403
C           5.6380494     0.3420022     1.7538418
H           6.2237574     0.6863046     2.6014582
31
212_C14H14O2S_0-9-17-26 (-15,) energy =   -1090.4873305
C           0.7428196     0.6737740     0.2850621
C           1.8731127     1.6224170     0.6285427
H           1.5024359     2.6507729     0.5942287
H           2.7143631     1.5518856    -0.0666018
H           2.2681191     1.4499483     1.6331846
C          -0.4600779     1.2649519    -0.1314556
H          -0.5017667     2.3475334    -0.2146729
C          -1.5877450     0.5085274    -0.4192219
H          -2.5055189     0.9952740    -0.7376620
C           0.7806282    -0.7353076     0.3797637
C          -1.5396603    -0.8729672    -0.2744260
H          -2.4258230    -1.4704750    -0.4702260
C          -0.3695577    -1.5265602     0.1265356
C          -0.4252934    -3.0335793     0.2740271
H          -1.4667234    -3.3656920     0.2322811
H           0.0015300    -3.3658887     1.2243131
H           0.1357552    -3.5339824    -0.5194505
S           2.2513719    -1.7189393     0.8690515
O           2.0673750    -2.1053973     2.2818424
O           2.4294043    -2.7518924    -0.1688143
C           6.1938063     0.5913173     0.7235610
H           7.1450305     1.1154671     0.6921768
C           5.6206662     0.1207282    -0.4615662
H           6.1278979     0.2713750    -1.4102768
C           4.4039420    -0.5599320    -0.4271641
H           3.9606488    -0.9615336    -1.3323512
C           3.7650717    -0.7391396     0.8017982
C           4.3367130    -0.2969856     1.9944036
H           3.8320277    -0.4935774     2.9344302
C           5.5590118     0.3750355     1.9486828
H           6.0178079     0.7224829     2.8699784
31
212_C14H14O2S_0-9-17-26 (0,) energy =   -1090.4870020
C           0.7309089     0.6796857     0.1760979
C           1.9224103     1.6120197     0.2572518
H           1.5819210     2.6432890     0.1290481
H           2.6662969     1.4129437    -0.5188063
H           2.4382595     1.5536375     1.2193915
C          -0.5166283     1.2878491    -0.0368270
H          -0.5535246     2.3698589    -0.1285281
C          -1.6876105     0.5493823    -0.1319108
H          -2.6378253     1.0498464    -0.2969878
C           0.7598425    -0.7276457     0.2929234
C          -1.6340964    -0.8345150    -0.0140691
H          -2.5457718    -1.4209618    -0.0874800
C          -0.4250119    -1.5043713     0.1989500
C          -0.4692023    -3.0144073     0.3137339
H          -1.5002891    -3.3628224     0.2085102
H          -0.0829057    -3.3527514     1.2790284
H           0.1409607    -3.4910968    -0.4583604
S           2.2609375    -1.7508639     0.5733135
O           2.0996365    -2.3799269     1.8989422
O           2.4339498    -2.5836950    -0.6329830
C           6.1817735     0.5756089     0.9042605
H           7.1284949     1.1023323     0.9870644
C           5.7392885     0.1338947    -0.3453880
H           6.3433066     0.3088865    -1.2311208
C           4.5267185    -0.5470222    -0.4573302
H           4.1771566    -0.9247594    -1.4123182
C           3.7660502    -0.7628075     0.6927347
C           4.2085786    -0.3535412     1.9515417
H           3.6168382    -0.5836699     2.8311713
C           5.4228006     0.3263590     2.0507201
H           5.7815090     0.6506393     3.0234261
31
212_C14H14O2S_0-9-17-26 (15,) energy =   -1090.4873302
C           0.7350686     0.6570889     0.0774624
C           1.9425434     1.5534012    -0.1074501
H           1.6053246     2.5676214    -0.3392591
H           2.5807089     1.2240156    -0.9316839
H           2.5710520     1.6110270     0.7855828
C          -0.5175018     1.2901893     0.0617148
H          -0.5485625     2.3709460    -0.0462021
C          -1.7023531     0.5742289     0.1624225
H          -2.6570811     1.0927157     0.1452578
C           0.7559344    -0.7476469     0.2266039
C          -1.6577393    -0.8113860     0.2619390
H          -2.5808564    -1.3822990     0.3125847
C          -0.4426881    -1.5039352     0.2940665
C          -0.5010397    -3.0153641     0.3841847
H          -1.5262218    -3.3519703     0.2044019
H          -0.1815515    -3.3698765     1.3675573
H           0.1497166    -3.4927900    -0.3535375
S           2.2745718    -1.7758371     0.3078036
O           2.1451383    -2.6209492     1.5098615
O           2.4555889    -2.3925096    -1.0211316
C           6.1054328     0.5871405     1.1069564
H           7.0298354     1.1239754     1.3015291
C           5.8080298     0.1623031    -0.1898457
H           6.5020930     0.3604393    -1.0016353
C           4.6217769    -0.5269410    -0.4456814
H           4.3758221    -0.8833504    -1.4404098
C           3.7452851    -0.7753121     0.6100982
C           4.0443458    -0.3865024     1.9177838
H           3.3678216    -0.6405073     2.7270891
C           5.2285010     0.3092608     2.1597307
H           5.4737935     0.6220340     3.1706787
31
212_C14H14O2S_0-9-17-26 (30,) energy =   -1090.4883586
C           0.7594883     0.6277018    -0.0454828
C           1.9415263     1.4587675    -0.5012042
H           1.5813813     2.4256129    -0.8650124
H           2.4857343     0.9805930    -1.3194694
H           2.6580501     1.6550559     0.3022346
C          -0.4507562     1.3063329     0.1525763
H          -0.4655687     2.3860952     0.0302316
C          -1.6215672     0.6299448     0.4703537
H          -2.5476253     1.1788872     0.6178822
C           0.7629451    -0.7759853     0.1212780
C          -1.6078869    -0.7568018     0.5603277
H          -2.5296422    -1.2946916     0.7646744
C          -0.4293693    -1.4938175     0.3892512
C          -0.5368310    -3.0032030     0.4693730
H          -1.5918888    -3.2912174     0.4337407
H          -0.0961211    -3.3930148     1.3900575
H          -0.0208793    -3.4979843    -0.3579872
S           2.2924429    -1.7746659    -0.0111010
O           2.2088887    -2.8491624     0.9930848
O           2.4980316    -2.1041826    -1.4348530
C           5.9712203     0.5848733     1.3388610
H           6.8588750     1.1206302     1.6637804
C           5.8480174     0.1859860     0.0063825
H           6.6400444     0.4045173    -0.7042572
C           4.7071745    -0.4973494    -0.4176812
H           4.5880202    -0.8212159    -1.4462413
C           3.7020810    -0.7720254     0.5080336
C           3.8257947    -0.4087093     1.8510316
H           3.0492632    -0.6714884     2.5624987
C           4.9629970     0.2865853     2.2605025
H           5.0686521     0.5838769     3.2999860
31
212_C14H14O2S_0-9-17-26 (45,) energy =   -1090.4907804
C           0.7766714     0.6286405    -0.1920925
C           1.9137367     1.4119921    -0.8151231
H           1.5238205     2.3453830    -1.2320143
H           2.3942836     0.8570565    -1.6240441
H           2.6855414     1.6752489    -0.0842862
C          -0.3892973     1.3348771     0.1258982
H          -0.4099103     2.4083899    -0.0424841
C          -1.5139595     0.6879374     0.6236764
H          -2.4094820     1.2551334     0.8627284
C           0.7878704    -0.7692846     0.0292190
C          -1.4974117    -0.6920380     0.7848977
H          -2.3872340    -1.2041508     1.1406196
C          -0.3582374    -1.4577224     0.4979402
C          -0.4727388    -2.9565761     0.6902414
H          -1.5173895    -3.2129492     0.8912197
H           0.1408334    -3.3090716     1.5229874
H          -0.1444861    -3.5153551    -0.1893186
S           2.3205378    -1.7123163    -0.2857745
O           2.2690538    -2.9720260     0.4737041
O           2.5538585    -1.7447219    -1.7425002
C           5.8498292     0.5174163     1.5913879
H           6.7023175     1.0207317     2.0390823
C           5.8627501     0.2029681     0.2311365
H           6.7243807     0.4568278    -0.3798120
C           4.7674147    -0.4375100    -0.3507448
H           4.7507547    -0.6875090    -1.4063176
C           3.6696705    -0.7571152     0.4466074
C           3.6535380    -0.4715917     1.8136216
H           2.8003165    -0.7532124     2.4233111
C           4.7468298     0.1810594     2.3817638
H           4.7422092     0.4183476     3.4418189
31
212_C14H14O2S_0-9-17-26 (60,) energy =   -1090.4924333
C           0.7382888     0.6442419    -0.3577895
C           1.8187843     1.4192827    -1.0817293
H           1.4334889     2.3995842    -1.3757465
H           2.1600488     0.8947812    -1.9767452
H           2.6957527     1.5866290    -0.4468969
C          -0.4281396     1.3348490    -0.0111896
H          -0.5026632     2.3898348    -0.2604064
C          -1.4843168     0.6957638     0.6278086
H          -2.3825900     1.2500455     0.8862274
C           0.8204503    -0.7318807    -0.0259311
C          -1.3923953    -0.6585443     0.9207822
H          -2.2251331    -1.1622144     1.4037052
C          -0.2499963    -1.4108087     0.6071157
C          -0.2899740    -2.8844815     0.9614149
H          -1.2675201    -3.1222378     1.3916605
H           0.4839566    -3.1590008     1.6821487
H          -0.1306676    -3.5220243     0.0889578
S           2.3515332    -1.6270919    -0.4580357
O           2.2966946    -2.9863453     0.1022489
O           2.6087642    -1.4526299    -1.8993748
C           5.7838165     0.3877182     1.8077198
H           6.6116949     0.8417106     2.3453036
C           5.8540342     0.2341025     0.4219372
H           6.7353972     0.5650107    -0.1201034
C           4.7905212    -0.3437680    -0.2739244
H           4.8186412    -0.4690039    -1.3512362
C           3.6662103    -0.7645018     0.4356541
C           3.5901770    -0.6316943     1.8239623
H           2.7137970    -0.9801152     2.3621568
C           4.6531266    -0.0431894     2.5076377
H           4.6020058     0.0727969     3.5865044
31
212_C14H14O2S_0-9-17-26 (75,) energy =   -1090.4926993
C           0.9264196     0.7320511    -0.4680126
C           1.9211390     1.5482942    -1.2665376
H           1.5381897     2.5644515    -1.3972788
H           2.1014479     1.1092151    -2.2502498
H           2.8933678     1.6198184    -0.7691621
C          -0.3031482     1.3316236    -0.1723219
H          -0.4884877     2.3422073    -0.5257165
C          -1.2797046     0.6611731     0.5544766
H          -2.2286299     1.1447680     0.7703314
C           1.1543752    -0.5851037     0.0054816
C          -1.0368211    -0.6299474     1.0046289
H          -1.8013547    -1.1545522     1.5708593
C           0.1736173    -1.2908686     0.7462806
C           0.2960675    -2.7058573     1.2788521
H          -0.5930711    -2.9434484     1.8705452
H           1.1775895    -2.8481888     1.9083519
H           0.3826085    -3.4363300     0.4712151
S           2.7459665    -1.3766590    -0.4123670
O           2.6978466    -2.7935003    -0.0201098
O           3.1003971    -1.0290948    -1.7984729
C           5.8817614     0.5505744     2.3175220
H           6.6367846     0.9916235     2.9624129
C           6.0208698     0.6238063     0.9308654
H           6.8839146     1.1180632     0.4939016
C           5.0506647     0.0610535     0.0987899
H           5.1370986     0.1018040    -0.9819397
C           3.9492246    -0.5733096     0.6734378
C           3.8050723    -0.6634679     2.0600347
H           2.9488702    -1.1714532     2.4928781
C           4.7751185    -0.0915649     2.8811511
H           4.6707502    -0.1516428     3.9607268
31
212_C14H14O2S_0-9-17-26 (90,) energy =   -1090.4911740
C           0.8480209     0.7241691    -0.7346168
C           1.7496625     1.4640881    -1.7026554
H           1.2802705     2.4128346    -1.9784802
H           1.9390066     0.8863838    -2.6085939
H           2.7248457     1.6930568    -1.2639735
C          -0.3915792     1.3191806    -0.4637441
H          -0.6372327     2.2533138    -0.9610123
C          -1.3006549     0.7465196     0.4156313
H          -2.2563523     1.2275397     0.6056290
C           1.1545647    -0.4957170    -0.0778367
C          -0.9772979    -0.4429499     1.0546058
H          -1.6839250    -0.8916064     1.7471264
C           0.2435877    -1.0942129     0.8307630
C           0.4614580    -2.3855780     1.5944475
H          -0.3857905    -2.5534790     2.2656714
H           1.3672240    -2.3581207     2.2060021
H           0.5593748    -3.2431317     0.9271802
S           2.7367504    -1.3435084    -0.4597105
O           2.5851469    -2.7750494    -0.1574906
O           3.1771256    -0.9310116    -1.8011161
C           5.8206225     0.3111717     2.5064986
H           6.5530730     0.7019524     3.2074277
C           5.6816824     0.8959168     1.2461378
H           6.3109682     1.7340239     0.9603674
C           4.7436726     0.3963504     0.3421636
H           4.6538990     0.8127019    -0.6547836
C           3.9429195    -0.6848996     0.7170646
C           4.0952688    -1.2958554     1.9639051
H           3.5120571    -2.1755459     2.2109134
C           5.0350945    -0.7881733     2.8607180
H           5.1619768    -1.2595144     3.8311858
31
212_C14H14O2S_0-9-17-26 (105,) energy =   -1090.4926753
C           0.8276754     0.6781208    -0.9986881
C           1.5906189     1.2097461    -2.1970997
H           1.0709082     2.0883172    -2.5909378
H           1.6666583     0.4641703    -2.9917690
H           2.6168281     1.4961864    -1.9548777
C          -0.3814670     1.3211114    -0.6934229
H          -0.6925035     2.1577291    -1.3128188
C          -1.1818720     0.9158633     0.3667180
H          -2.1130872     1.4351033     0.5768283
C           1.2074176    -0.4153088    -0.1807466
C          -0.7848743    -0.1549814     1.1585662
H          -1.4063958    -0.4739719     1.9907118
C           0.4085084    -0.8428118     0.9101749
C           0.7502024    -1.9930480     1.8340316
H           0.0148362    -2.0428054     2.6421436
H           1.7387685    -1.8789328     2.2897475
H           0.7564825    -2.9467884     1.3019650
S           2.7702919    -1.3059792    -0.4925927
O           2.5454479    -2.7471161    -0.2915579
O           3.3447055    -0.8419622    -1.7647719
C           5.6939100     0.0760916     2.7547565
H           6.4024943     0.3975577     3.5130713
C           5.1100150     1.0194135     1.9039148
H           5.3648734     2.0711001     1.9987728
C           4.2038149     0.6131039     0.9261453
H           3.7551797     1.3405232     0.2568693
C           3.8806827    -0.7418248     0.8197804
C           4.4594681    -1.6932139     1.6598937
H           4.1955069    -2.7388533     1.5412342
C           5.3723272    -1.2761966     2.6310343
H           5.8310319    -2.0091259     3.2886678
31
212_C14H14O2S_0-9-17-26 (120,) energy =   -1090.4925591
C           0.7455703     0.6464014    -1.1224251
C           1.4183959     1.0859263    -2.4082085
H           0.7912753     1.8342817    -2.9020566
H           1.5716617     0.2522309    -3.0971646
H           2.4059592     1.5194933    -2.2340586
C          -0.4858147     1.2489647    -0.8218508
H          -0.8780962     1.9919541    -1.5106187
C          -1.2079545     0.9178931     0.3169756
H          -2.1582088     1.4041192     0.5207014
C           1.2375431    -0.3163314    -0.2066722
C          -0.7162193    -0.0483316     1.1870875
H          -1.2861445    -0.3240900     2.0701010
C           0.5014273    -0.6935646     0.9455416
C           0.9353976    -1.7568224     1.9318453
H           0.1468339    -1.9156069     2.6725724
H           1.8434897    -1.4687958     2.4721264
H           1.1442603    -2.7053290     1.4321175
S           2.8104871    -1.1826809    -0.5347707
O           2.5664970    -2.6355956    -0.4854640
O           3.4483412    -0.6026008    -1.7268648
C           5.6580131    -0.1410334     2.8978750
H           6.3544506     0.1026916     3.6954142
C           5.0294877     0.8846116     2.1857952
H           5.2375702     1.9232126     2.4266728
C           4.1393223     0.5776758     1.1577435
H           3.6562879     1.3690332     0.5924459
C           3.8743529    -0.7623498     0.8661592
C           4.4981713    -1.7949970     1.5657051
H           4.2739416    -2.8247761     1.3080452
C           5.3961300    -1.4763817     2.5862586
H           5.8887790    -2.2723194     3.1375049
31
212_C14H14O2S_0-9-17-26 (135,) energy =   -1090.4913303
C           0.6683200     0.6122138    -1.2155190
C           1.2550493     0.9466293    -2.5724420
H           0.5217741     1.5192574    -3.1483643
H           1.5183030     0.0523296    -3.1422856
H           2.1718337     1.5351429    -2.4892208
C          -0.5903133     1.1566513    -0.9203523
H          -1.0655937     1.7905631    -1.6637440
C          -1.2385376     0.8988194     0.2806560
H          -2.2123284     1.3375555     0.4808624
C           1.2757622    -0.1984493    -0.2247679
C          -0.6491734     0.0506942     1.2108225
H          -1.1699505    -0.1883684     2.1341692
C           0.6003958    -0.5334419     0.9749441
C           1.1199841    -1.5040972     2.0148112
H           0.2994577    -1.8067791     2.6717640
H           1.8982810    -1.0582144     2.6431438
H           1.5368215    -2.4038290     1.5563397
S           2.8801315    -0.9938529    -0.5806325
O           2.6590284    -2.4472083    -0.7063766
O           3.5475244    -0.2648736    -1.6711273
C           5.6375455    -0.3399261     3.0142054
H           6.3144583    -0.1863327     3.8500897
C           5.0139320     0.7575858     2.4135788
H           5.2071550     1.7622976     2.7785973
C           4.1496793     0.5666243     1.3361862
H           3.6728411     1.4144084     0.8533820
C           3.9015022    -0.7325073     0.8877052
C           4.5239250    -1.8349393     1.4713725
H           4.3160950    -2.8290625     1.0897813
C           5.3978808    -1.6312981     2.5405692
H           5.8891108    -2.4823925     3.0036383
31
212_C14H14O2S_0-9-17-26 (150,) energy =   -1090.4889646
C           0.5768811     0.5571141    -1.2786539
C           1.1226818     0.7927177    -2.6724988
H           0.3152884     1.1505912    -3.3184978
H           1.5353323    -0.1176404    -3.1154674
H           1.9287052     1.5303199    -2.6746161
C          -0.7229475     1.0110845    -1.0180888
H          -1.2613913     1.5204257    -1.8125550
C          -1.3329038     0.8143729     0.2145012
H          -2.3397274     1.1826397     0.3917231
C           1.2712628    -0.0870939    -0.2240565
C          -0.6628584     0.1059278     1.2041080
H          -1.1559381    -0.1008100     2.1501849
C           0.6327016    -0.3872490     1.0024216
C           1.2177324    -1.2469991     2.1035236
H           0.4198980    -1.5451275     2.7899677
H           1.9799560    -0.7245370     2.6895872
H           1.6716965    -2.1593261     1.7078681
S           2.9433559    -0.7228853    -0.6047382
O           2.8114774    -2.1433766    -0.9821314
O           3.5933618     0.2275399    -1.5232313
C           5.6302833    -0.5714193     3.0947050
H           6.2914749    -0.5346628     3.9560997
C           5.0836030     0.6109879     2.5870014
H           5.3228629     1.5648980     3.0483555
C           4.2415027     0.5706279     1.4763250
H           3.8316614     1.4845351     1.0574847
C           3.9344506    -0.6660025     0.9043436
C           4.4846243    -1.8508446     1.3901885
H           4.2417127    -2.7901620     0.9046088
C           5.3386950    -1.7972040     2.4929059
H           5.7757061    -2.7130872     2.8805590
31
212_C14H14O2S_0-9-17-26 (165,) energy =   -1090.4874341
C           0.5111729     0.4641299    -1.3256576
C           1.0792904     0.6561642    -2.7172426
H           0.2611286     0.8240737    -3.4237368
H           1.6438155    -0.2187116    -3.0515213
H           1.7614027     1.5091012    -2.7587684
C          -0.8401776     0.7720548    -1.1327899
H          -1.4120120     1.1460944    -1.9776180
C          -1.4563319     0.6015778     0.1011168
H          -2.5056588     0.8525407     0.2298519
C           1.2483319    -0.0161777    -0.2129484
C          -0.7275752     0.0806160     1.1617543
H          -1.2141809    -0.0889886     2.1183780
C           0.6277420    -0.2590022     1.0331720
C           1.2813346    -0.8888189     2.2461160
H           0.5182755    -1.0847930     3.0047145
H           2.0422359    -0.2484967     2.7011763
H           1.7598522    -1.8426860     2.0087711
S           3.0038495    -0.3896246    -0.5948918
O           3.0345446    -1.6984961    -1.2767894
O           3.5564638     0.8072546    -1.2558448
C           5.6497774    -0.8389042     3.1063788
H           6.3014143    -0.9440892     3.9694354
C           5.2381054     0.4330128     2.6974711
H           5.5744006     1.3145139     3.2358715
C           4.4086871     0.5750480     1.5853153
H           4.1066904     1.5562204     1.2339694
C           3.9821181    -0.5709097     0.9105134
C           4.4033332    -1.8440526     1.2926970
H           4.0843612    -2.7073894     0.7182913
C           5.2419087    -1.9730854     2.4007191
H           5.5808889    -2.9582134     2.7083243
31
212_C14H14O2S_0-9-17-26 (180,) energy =   -1090.4869998
C           0.4896485     0.3470132    -1.3470064
C           1.0815669     0.5623479    -2.7249118
H           0.2828484     0.7742587    -3.4409939
H           1.6316063    -0.3187533    -3.0660554
H           1.7856780     1.3990529    -2.7293695
C          -0.8970273     0.4677963    -1.2109188
H          -1.4856775     0.7067983    -2.0923072
C          -1.5253721     0.2894294     0.0159858
H          -2.6043011     0.3874787     0.0990668
C           1.2485027     0.0343329    -0.1884199
C          -0.7632268    -0.0147287     1.1350041
H          -1.2500444    -0.1542473     2.0962888
C           0.6328058    -0.1501642     1.0693191
C           1.3326169    -0.4834455     2.3711166
H           0.5905098    -0.5522827     3.1713905
H           2.0618900     0.2763793     2.6640344
H           1.8623834    -1.4390958     2.3313957
S           3.0497534    -0.0959039    -0.5312177
O           3.2229992    -1.2507188    -1.4341849
O           3.4990950     1.2485562    -0.9426616
C           5.6621431    -1.0986680     3.0835455
H           6.3075112    -1.3364528     3.9246955
C           5.3890660     0.2359520     2.7722276
H           5.8270972     1.0345127     3.3641855
C           4.5649016     0.5473998     1.6905100
H           4.3626183     1.5763017     1.4124866
C           4.0128782    -0.4932998     0.9420071
C           4.2997774    -1.8299488     1.2226056
H           3.8957049    -2.6119169     0.5884493
C           5.1254854    -2.1287377     2.3068272
H           5.3590167    -3.1642230     2.5375084
