20
099_C9H8N2O_8-0-16-17 (-165,) energy =    -532.4831036
N           3.1528229    -1.3247053    -1.6225479
H           3.4779136    -2.1854521    -2.0406667
C           5.8958373     0.4451808     1.0398194
H           6.6146711     0.8918341     1.7204828
C           4.6225792     0.9963323     0.8921931
H           4.3450553     1.8799448     1.4611136
C           3.6865622     0.4382214     0.0210605
H           2.7012230     0.8710295    -0.0952803
C           4.0322571    -0.7038296    -0.7164574
C           5.3135756    -1.2607821    -0.5738983
H           5.5844452    -2.1446249    -1.1485725
C           6.2347690    -0.6885416     0.2980255
H           7.2210316    -1.1341150     0.3970110
C          -0.1865381    -0.4099799    -1.9229620
H          -1.0328391     0.2426321    -1.7621367
N           1.0761612    -0.0877859    -1.4253485
C           1.8198570    -1.0858501    -1.8092770
O           1.1677807    -2.0477933    -2.5192241
C          -0.1381942    -1.5841484    -2.5879876
H          -0.8361696    -2.2020927    -3.1277379
20
099_C9H8N2O_8-0-16-17 (-150,) energy =    -532.4820063
N           3.1965651    -1.2095833    -1.7581453
H           3.5075413    -2.0906007    -2.1456366
C           5.8577854     0.3900027     1.0936970
H           6.5549002     0.7941893     1.8218542
C           4.6076257     0.9807703     0.9059314
H           4.3267992     1.8530130     1.4905266
C           3.7016239     0.4779814    -0.0282266
H           2.7363945     0.9445924    -0.1802571
C           4.0510420    -0.6498479    -0.7844369
C           5.3093109    -1.2449928    -0.6035964
H           5.5841257    -2.1166364    -1.1947756
C           6.2029093    -0.7264328     0.3291762
H           7.1717119    -1.2015049     0.4587121
C          -0.1795772    -0.3875739    -1.9225359
H          -1.0264701     0.2684449    -1.7798070
N           1.1088953     0.0090069    -1.5656725
C           1.8449359    -1.0178636    -1.8795599
O           1.1629170    -2.0680913    -2.4156345
C          -0.1525836    -1.6321469    -2.4468790
H          -0.8728493    -2.3156621    -2.8647169
20
099_C9H8N2O_8-0-16-17 (-135,) energy =    -532.4801902
N           3.2425190    -1.1133870    -1.8809185
H           3.5513103    -2.0013461    -2.2566662
C           5.8124121     0.3302306     1.1392038
H           6.4848135     0.6961334     1.9096271
C           4.5826755     0.9523068     0.9186185
H           4.2935255     1.8108082     1.5192612
C           3.7106819     0.4986874    -0.0711098
H           2.7638667     0.9928296    -0.2527812
C           4.0702274    -0.6113375    -0.8473779
C           5.3076753    -1.2365552    -0.6349432
H           5.5912506    -2.0939106    -1.2425989
C           6.1699929    -0.7660963     0.3520936
H           7.1234519    -1.2641647     0.5067408
C          -0.1610645    -0.3776835    -1.9380785
H          -1.0117076     0.2799869    -1.8293659
N           1.1387413     0.0806237    -1.7309125
C           1.8768770    -0.9677325    -1.9508589
O           1.1827214    -2.0920855    -2.2865661
C          -0.1388837    -1.6819677    -2.2919773
H          -0.8694582    -2.4225365    -2.5726074
20
099_C9H8N2O_8-0-16-17 (-120,) energy =    -532.4778686
N           3.2847067    -1.0271786    -1.9904672
H           3.6002022    -1.9120442    -2.3705774
C           5.7578827     0.2772490     1.1755549
H           6.4040370     0.6098964     1.9826234
C           4.5420519     0.9185666     0.9320755
H           4.2379674     1.7588157     1.5508722
C           3.7054290     0.5067976    -0.1048692
H           2.7719098     1.0190956    -0.3073178
C           4.0837232    -0.5790279    -0.9051091
C           5.3066134    -1.2224559    -0.6702183
H           5.6055027    -2.0612652    -1.2960448
C           6.1358791    -0.7936306     0.3638984
H           7.0790858    -1.3053436     0.5360915
C          -0.1398567    -0.3703132    -1.9751752
H          -0.9975513     0.2847917    -1.9198035
N           1.1582752     0.1304968    -1.9206645
C           1.9082140    -0.9264598    -2.0201561
O           1.2187039    -2.0998031    -2.1333770
C          -0.1061310    -1.7141964    -2.1267371
H          -0.8360720    -2.4969774    -2.2530549
20
099_C9H8N2O_8-0-16-17 (-105,) energy =    -532.4754160
N           3.3229433    -0.9540740    -2.0790340
H           3.6542346    -1.8248219    -2.4799150
C           5.7085578     0.2225813     1.2061299
H           6.3310179     0.5252817     2.0430358
C           4.5000581     0.8738033     0.9509689
H           4.1783889     1.6920886     1.5899652
C           3.6951671     0.4988159    -0.1238453
H           2.7688479     1.0215355    -0.3356243
C           4.0955857    -0.5577111    -0.9516562
C           5.3101021    -1.2106170    -0.7042384
H           5.6264794    -2.0275698    -1.3500209
C           6.1096363    -0.8187633     0.3679633
H           7.0475176    -1.3371825     0.5491302
C          -0.1179896    -0.3627600    -2.0309879
H          -0.9854988     0.2813583    -2.0499649
N           1.1706877     0.1528766    -2.1245273
C           1.9386572    -0.8935168    -2.0767769
O           1.2638057    -2.0776724    -1.9516180
C          -0.0624007    -1.7132440    -1.9490491
H          -0.7835676    -2.5133507    -1.9045421
20
099_C9H8N2O_8-0-16-17 (-90,) energy =    -532.4743537
N           3.2373280    -1.6389997    -1.5599813
H           3.7146937    -1.8747449    -2.4237243
C           5.8388369     0.3511112     1.1153817
H           6.5130342     0.8523558     1.8035115
C           4.4564369     0.4505391     1.2806148
H           4.0470574     1.0313045     2.1030348
C           3.5832178    -0.1902849     0.4027611
H           2.5103726    -0.1177383     0.5500353
C           4.0934043    -0.9381026    -0.6661103
C           5.4804687    -1.0445702    -0.8316248
H           5.8809767    -1.6295753    -1.6570225
C           6.3433915    -0.4029034     0.0543754
H           7.4167252    -0.4918358    -0.0911853
C           0.1882828    -0.3926016    -2.7305361
H          -0.4254435     0.1422703    -3.4413040
N           1.5701029    -0.4579867    -2.8641480
C           1.9597691    -1.1638274    -1.8450518
O           0.9422220    -1.5921210    -1.0430985
C          -0.1875152    -1.0673906    -1.6166110
H          -1.1203634    -1.2624785    -1.1123483
20
099_C9H8N2O_8-0-16-17 (-75,) energy =    -532.4767161
N           3.2468527    -1.5605361    -1.5994990
H           3.7247586    -1.7572474    -2.4722765
C           5.8503504     0.2995888     1.1655419
H           6.5275687     0.7671688     1.8740818
C           4.4688564     0.3964048     1.3373609
H           4.0632460     0.9419323     2.1853911
C           3.5897987    -0.2016172     0.4348507
H           2.5186519    -0.1319666     0.5888109
C           4.0956313    -0.9035926    -0.6669520
C           5.4826892    -1.0081235    -0.8390735
H           5.8796141    -1.5586651    -1.6895103
C           6.3500858    -0.4092917     0.0715730
H           7.4226855    -0.4963869    -0.0801171
C           0.1378139    -0.5495032    -2.8037188
H          -0.5162232    -0.1691798    -3.5753992
N           1.5118846    -0.6476537    -2.9976391
C           1.9576792    -1.1300120    -1.8755861
O           0.9916639    -1.3783453    -0.9475720
C          -0.1746541    -0.9736728    -1.5564572
H          -1.0747418    -1.0473891    -0.9679540
20
099_C9H8N2O_8-0-16-17 (-60,) energy =    -532.4787404
N           3.2602022    -1.4539139    -1.6573198
H           3.7411418    -1.6499107    -2.5277252
C           5.8599989     0.2521620     1.2048460
H           6.5391938     0.6799474     1.9362502
C           4.4791358     0.3549523     1.3756794
H           4.0757204     0.8657917     2.2460879
C           3.5954455    -0.1924438     0.4455371
H           2.5259925    -0.1167231     0.6008923
C           4.0978880    -0.8498189    -0.6857733
C           5.4858440    -0.9596899    -0.8571442
H           5.8801661    -1.4754396    -1.7303370
C           6.3562580    -0.4118609     0.0813412
H           7.4282970    -0.5035472    -0.0713418
C           0.0952474    -0.6889093    -2.8652621
H          -0.5948384    -0.4550720    -3.6634493
N           1.4610902    -0.8154981    -3.1001896
C           1.9567243    -1.0882074    -1.9280769
O           1.0382490    -1.1650588    -0.9283698
C          -0.1619665    -0.8813541    -1.5511800
H          -1.0333771    -0.8488902    -0.9180224
20
099_C9H8N2O_8-0-16-17 (-45,) energy =    -532.4801401
N           3.2889992    -1.3375867    -1.7125778
H           3.7746205    -1.5528807    -2.5748041
C           5.8742855     0.2031366     1.2494182
H           6.5525663     0.5887630     2.0046805
C           4.4937135     0.3190665     1.4112522
H           4.0894069     0.7984425     2.2990023
C           3.6090264    -0.1738888     0.4516921
H           2.5407774    -0.0852859     0.6013752
C           4.1121710    -0.7911117    -0.7027492
C           5.5016239    -0.9132055    -0.8653055
H           5.8972262    -1.3970693    -1.7560092
C           6.3711794    -0.4195150     0.1025322
H           7.4430231    -0.5213540    -0.0449507
C           0.0787882    -0.8139862    -2.9055501
H          -0.6381818    -0.7131197    -3.7079689
N           1.4379093    -0.9661554    -3.1634827
C           1.9705380    -1.0499026    -1.9772932
O           1.0881908    -0.9720931    -0.9490261
C          -0.1383132    -0.8014580    -1.5711668
H          -0.9893010    -0.6802790    -0.9216359
20
099_C9H8N2O_8-0-16-17 (-30,) energy =    -532.4809667
N           3.2988293    -1.2305946    -1.7529768
H           3.7856929    -1.4841159    -2.6030378
C           5.8785171     0.1507295     1.2864301
H           6.5574371     0.4964602     2.0601742
C           4.4989476     0.2814941     1.4434791
H           4.0958575     0.7327493     2.3464057
C           3.6118890    -0.1593563     0.4608643
H           2.5453570    -0.0557437     0.6075635
C           4.1128136    -0.7413498    -0.7137100
C           5.5027818    -0.8769471    -0.8717605
H           5.8973132    -1.3318807    -1.7780914
C           6.3732904    -0.4344396     0.1188705
H           7.4443076    -0.5473968    -0.0264380
C           0.0501718    -0.9380533    -2.9028319
H          -0.6886426    -0.9578774    -3.6914991
N           1.4030358    -1.1159310    -3.1749952
C           1.9662472    -1.0271889    -2.0018986
O           1.1132784    -0.8079998    -0.9720152
C          -0.1345889    -0.7411112    -1.5785569
H          -0.9693950    -0.5434510    -0.9271475
20
099_C9H8N2O_8-0-16-17 (-15,) energy =    -532.4813678
N           3.3004278    -1.1403389    -1.7884530
H           3.7848078    -1.4597718    -2.6167173
C           5.8803500     0.1071326     1.3047961
H           6.5605461     0.4200025     2.0912805
C           4.5013459     0.2371064     1.4664785
H           4.0998698     0.6542345     2.3863896
C           3.6118117    -0.1611514     0.4680154
H           2.5464564    -0.0557560     0.6185552
C           4.1101547    -0.7002439    -0.7287246
C           5.5005652    -0.8331601    -0.8919932
H           5.8939651    -1.2518415    -1.8161513
C           6.3726713    -0.4336183     0.1148994
H           7.4431812    -0.5451336    -0.0351696
C           0.0251414    -1.0443713    -2.8850326
H          -0.7297241    -1.1744394    -3.6476594
N           1.3711786    -1.2674031    -3.1559685
C           1.9579694    -1.0119795    -2.0183049
O           1.1283332    -0.6413598    -1.0149780
C          -0.1342156    -0.6619909    -1.5988387
H          -0.9557521    -0.3809402    -0.9615821
20
099_C9H8N2O_8-0-16-17 (0,) energy =    -532.4814895
N           2.9838106    -1.6809898    -0.9212972
H           3.1505623    -2.6767269    -0.8671235
C           6.1830450     0.6657926     0.5034064
H           7.0177747     1.2526925     0.8747188
C           5.0353150     1.2919300     0.0185208
H           4.9717085     2.3769697     0.0105348
C           3.9527144     0.5547308    -0.4625726
H           3.0739522     1.0632435    -0.8336199
C           4.0146961    -0.8480679    -0.4609897
C           5.1721418    -1.4804009     0.0278465
H           5.2273124    -2.5671704     0.0321522
C           6.2415744    -0.7297135     0.5035710
H           7.1249192    -1.2414654     0.8760633
C          -0.1852567    -1.5634698    -2.2900161
H          -1.0726242    -2.0394801    -2.6829053
N           0.8948092    -2.3131618    -1.8360179
C           1.7526603    -1.4081820    -1.4489873
O           1.3450278    -0.1269514    -1.6029984
C           0.0730400    -0.2440028    -2.1555642
H          -0.4414890     0.6797557    -2.3601513
20
099_C9H8N2O_8-0-16-17 (15,) energy =    -532.4813678
N           3.0317887    -1.6758948    -1.0565540
H           3.1775939    -2.6720526    -0.9611890
C           6.1533467     0.6531187     0.5595967
H           6.9687465     1.2359648     0.9773589
C           5.0251631     1.2846262     0.0370193
H           4.9577884     2.3694314     0.0456014
C           3.9685045     0.5526709    -0.5056786
H           3.1065670     1.0648053    -0.9100732
C           4.0349065    -0.8496126    -0.5242231
C           5.1729107    -1.4872257     0.0010931
H           5.2321226    -2.5737148    -0.0115620
C           6.2182336    -0.7418226     0.5356119
H           7.0866702    -1.2573847     0.9368118
C          -0.2290033    -1.5502692    -2.1926327
H          -1.1553298    -2.0228177    -2.4875170
N           0.8534849    -2.3002543    -1.7446326
C           1.7630156    -1.4000193    -1.4873787
O           1.3878026    -0.1210782    -1.7236893
C           0.0786657    -0.2345584    -2.1804575
H          -0.4215510     0.6887743    -2.4197217
20
099_C9H8N2O_8-0-16-17 (30,) energy =    -532.4809667
N           3.0749883    -1.6765527    -1.1433595
H           3.1921294    -2.6690492    -0.9847975
C           6.1297547     0.6531949     0.6006334
H           6.9279456     1.2370292     1.0491543
C           4.9988052     1.2811057     0.0794259
H           4.9116647     2.3637427     0.1205748
C           3.9648493     0.5470207    -0.5026466
H           3.1008059     1.0555230    -0.9083575
C           4.0569233    -0.8520006    -0.5620473
C           5.1977130    -1.4858601    -0.0403201
H           5.2773573    -2.5700464    -0.0877772
C           6.2207639    -0.7388344     0.5343690
H           7.0921825    -1.2509021     0.9335781
C          -0.2499458    -1.5359029    -2.0849289
H          -1.2096279    -1.9970203    -2.2709847
N           0.8232356    -2.2730073    -1.5941003
C           1.7820418    -1.3937283    -1.5003070
O           1.4475426    -0.1381593    -1.8849053
C           0.1126627    -0.2449509    -2.2540006
H          -0.3657058     0.6652319    -2.5749926
20
099_C9H8N2O_8-0-16-17 (45,) energy =    -532.4801401
N           3.1188121    -1.6762364    -1.2494262
H           3.2172822    -2.6653369    -1.0555297
C           6.0931395     0.6408503     0.6520104
H           6.8698786     1.2229496     1.1388683
C           4.9682026     1.2679737     0.1164338
H           4.8643501     2.3477509     0.1847078
C           3.9630795     0.5347088    -0.5148199
H           3.1037191     1.0410158    -0.9350147
C           4.0771642    -0.8599721    -0.6081196
C           5.2112185    -1.4927857    -0.0739112
H           5.3079099    -2.5739599    -0.1493556
C           6.2070378    -0.7471372     0.5497229
H           7.0746322    -1.2574028     0.9594549
C          -0.2669751    -1.5031136    -1.9630591
H          -1.2531252    -1.9401353    -2.0310014
N           0.8094381    -2.2205548    -1.4497298
C           1.8037250    -1.3816552    -1.5231765
O           1.4892846    -0.1686276    -2.0443413
C           0.1321735    -0.2588647    -2.3100371
H          -0.3360239     0.6275163    -2.7048463
20
099_C9H8N2O_8-0-16-17 (60,) energy =    -532.4787404
N           3.1567395    -1.6605607    -1.3744439
H           3.2415907    -2.6483747    -1.1638579
C           6.0461879     0.6240786     0.6975493
H           6.7996500     1.2001980     1.2263585
C           4.9290558     1.2542757     0.1485512
H           4.8081050     2.3298089     0.2481054
C           3.9552072     0.5268065    -0.5356449
H           3.1013652     1.0337052    -0.9687800
C           4.0919215    -0.8617231    -0.6688653
C           5.2170457    -1.4972046    -0.1228632
H           5.3307239    -2.5740131    -0.2301647
C           6.1832658    -0.7579987     0.5542515
H           7.0455773    -1.2690931     0.9739973
C          -0.2751933    -1.4291315    -1.8535917
H          -1.2795964    -1.8236067    -1.7938874
N           0.8087957    -2.1192315    -1.3192957
C           1.8264888    -1.3483331    -1.5720564
O           1.5187684    -0.2041909    -2.2392632
C           0.1471120    -0.2631572    -2.3941167
H          -0.3169908     0.5835822    -2.8725933
20
099_C9H8N2O_8-0-16-17 (75,) energy =    -532.4767161
N           3.2051725    -1.6436859    -1.4852494
H           3.2866880    -2.6328677    -1.2761934
C           6.0056105     0.6096773     0.7426684
H           6.7345915     1.1806165     1.3100304
C           4.8903383     1.2388202     0.1879004
H           4.7466083     2.3078499     0.3212890
C           3.9487723     0.5159913    -0.5441305
H           3.0948771     1.0200474    -0.9831074
C           4.1155724    -0.8637146    -0.7207494
C           5.2378599    -1.4976704    -0.1702469
H           5.3748553    -2.5678132    -0.3113668
C           6.1729465    -0.7636710     0.5557775
H           7.0346597    -1.2724438     0.9796480
C          -0.2572310    -1.3390165    -1.7248161
H          -1.2667912    -1.6694625    -1.5260835
N           0.8425416    -1.9856319    -1.1701110
C           1.8637600    -1.3175655    -1.6186702
O           1.5397337    -0.2823254    -2.4428972
C           0.1637800    -0.2967286    -2.4795367
H          -0.3099029     0.4821019    -3.0548414
20
099_C9H8N2O_8-0-16-17 (90,) energy =    -532.4743537
N           3.2397072    -1.6340562    -1.5660009
H           3.3372577    -2.6291032    -1.3931659
C           5.9573979     0.5878226     0.7926768
H           6.6640778     1.1538845     1.3922498
C           4.8376275     1.2124137     0.2411175
H           4.6681744     2.2728006     0.4088064
C           3.9255205     0.4940163    -0.5307361
H           3.0663263     0.9937843    -0.9665875
C           4.1251514    -0.8746084    -0.7521432
C           5.2509766    -1.5034607    -0.2046559
H           5.4130436    -2.5651243    -0.3793660
C           6.1577439    -0.7743129     0.5618189
H           7.0233606    -1.2785999     0.9831794
C          -0.2331712    -1.2349186    -1.5795200
H          -1.2318255    -1.4696043    -1.2395920
N           0.8890275    -1.8194223    -1.0045587
C           1.8897644    -1.3035627    -1.6534190
O           1.5250072    -0.4266851    -2.6332168
C           0.1567089    -0.3788717    -2.5555180
H          -0.3424284     0.2931936    -3.2350297
20
099_C9H8N2O_8-0-16-17 (105,) energy =    -532.4754160
N           2.8635706    -1.8716342    -0.8254165
H           3.2454387    -2.6410626    -1.3646960
C           5.9290131     0.6632412     0.6047930
H           6.7213507     1.3053317     0.9781780
C           4.5936357     1.0608430     0.6961539
H           4.3411571     2.0172525     1.1466132
C           3.5670371     0.2429114     0.2262853
H           2.5287957     0.5419031     0.3201607
C           3.8792980    -0.9895951    -0.3613123
C           5.2168685    -1.3965258    -0.4499787
H           5.4614972    -2.3567134    -0.9002427
C           6.2324090    -0.5731269     0.0328381
H           7.2655461    -0.9011333    -0.0461586
C          -0.1933096    -0.5122996    -1.8252251
H          -1.1365918    -0.0197214    -1.6370605
N           0.6817023    -0.8239002    -0.7895721
C           1.6832428    -1.4031841    -1.3797754
O           1.5519644    -1.5002941    -2.7386898
C           0.3229314    -0.9415259    -3.0011808
H          -0.0059275    -0.9570737    -4.0277498
20
099_C9H8N2O_8-0-16-17 (120,) energy =    -532.4778686
N           2.8990165    -1.8067877    -0.9210072
H           3.2815877    -2.5598133    -1.4809169
C           5.9468115     0.6418208     0.6791695
H           6.7369473     1.2608123     1.0940026
C           4.6134493     1.0473484     0.7598027
H           4.3602851     1.9874383     1.2430427
C           3.5881103     0.2593548     0.2377639
H           2.5512867     0.5645946     0.3200033
C           3.9027245    -0.9512496    -0.3930093
C           5.2388707    -1.3672018    -0.4709408
H           5.4839355    -2.3112610    -0.9540027
C           6.2513771    -0.5734680     0.0636801
H           7.2829768    -0.9077485    -0.0082067
C          -0.1764041    -0.4543238    -1.8540039
H          -1.0811566     0.1068137    -1.6684357
N           0.7754745    -0.6447344    -0.8556155
C           1.6993136    -1.3543759    -1.4321819
O           1.4471306    -1.6542251    -2.7402979
C           0.2157128    -1.0818462    -2.9864951
H          -0.2008948    -1.2396708    -3.9678455
20
099_C9H8N2O_8-0-16-17 (135,) energy =    -532.4801902
N           2.9341924    -1.7290343    -1.0395587
H           3.3137222    -2.4753183    -1.6087913
C           5.9522820     0.6096954     0.7579532
H           6.7370739     1.2000436     1.2217970
C           4.6236215     1.0340657     0.8075175
H           4.3687064     1.9608191     1.3150116
C           3.6032827     0.2841877     0.2224531
H           2.5702333     0.6059822     0.2762799
C           3.9210166    -0.9091782    -0.4400711
C           5.2535818    -1.3443060    -0.4873882
H           5.5003672    -2.2750190    -0.9949209
C           6.2592100    -0.5876463     0.1087150
H           7.2872400    -0.9366799     0.0597106
C          -0.1839854    -0.4224157    -1.8753786
H          -1.0615012     0.1814544    -1.6930341
N           0.8507266    -0.4944736    -0.9444463
C           1.7104740    -1.2994682    -1.4967972
O           1.3416335    -1.7729410    -2.7209284
C           0.0982393    -1.2063667    -2.9396454
H          -0.4002553    -1.4825911    -3.8540509
20
099_C9H8N2O_8-0-16-17 (150,) energy =    -532.4820063
N           2.9803589    -1.6409953    -1.1682524
H           3.3543398    -2.3958608    -1.7280395
C           5.9512192     0.5766194     0.8392535
H           6.7259353     1.1356472     1.3558309
C           4.6298762     1.0251357     0.8459613
H           4.3705139     1.9400588     1.3723352
C           3.6211517     0.3173271     0.1919193
H           2.5944989     0.6611911     0.2077174
C           3.9448706    -0.8615691    -0.4946368
C           5.2713868    -1.3203332    -0.5002500
H           5.5226188    -2.2388913    -1.0274249
C           6.2640299    -0.6041048     0.1624444
H           7.2865298    -0.9718676     0.1452620
C          -0.1895207    -0.4063712    -1.8952139
H          -1.0484381     0.2255200    -1.7193329
N           0.9211635    -0.3656032    -1.0528933
C           1.7310367    -1.2446129    -1.5688305
O           1.2607003    -1.8711455    -2.6831692
C           0.0028142    -1.3199333    -2.8714530
H          -0.5655359    -1.6993502    -3.7042707
20
099_C9H8N2O_8-0-16-17 (165,) energy =    -532.4831036
N           3.0399293    -1.5493447    -1.3147702
H           3.4056929    -2.3283759    -1.8446052
C           5.9418500     0.5369106     0.9148318
H           6.7003582     1.0625548     1.4874468
C           4.6314112     1.0137710     0.8689851
H           4.3643037     1.9179113     1.4099517
C           3.6428428     0.3510277     0.1409770
H           2.6257950     0.7204654     0.1113366
C           3.9762161    -0.8153020    -0.5634736
C           5.2930631    -1.3012762    -0.5181962
H           5.5521830    -2.2084042    -1.0611306
C           6.2649842    -0.6280180     0.2155564
H           7.2792999    -1.0175295     0.2377362
C          -0.1884052    -0.4123888    -1.9180724
H          -1.0378247     0.2339727    -1.7486733
N           0.9863168    -0.2662140    -1.1801496
C           1.7625818    -1.1991412    -1.6530905
O           1.2127430    -1.9564208    -2.6424112
C          -0.0623815    -1.4310873    -2.7953516
H          -0.6864317    -1.9011928    -3.5369171
20
099_C9H8N2O_8-0-16-17 (180,) energy =    -532.4834541
N           3.1000277    -1.4390530    -1.4689976
H           3.4468111    -2.2584906    -1.9473731
C           5.9260758     0.4921945     0.9836741
H           6.6660394     0.9790745     1.6120905
C           4.6326841     1.0058579     0.8838772
H           4.3604189     1.9002716     1.4382835
C           3.6683386     0.3948577     0.0819174
H           2.6657698     0.7957401     0.0067531
C           4.0078196    -0.7603026    -0.6383874
C           5.3085419    -1.2816076    -0.5412440
H           5.5732038    -2.1779216    -1.0992711
C           6.2567271    -0.6579745     0.2636998
H           7.2580918    -1.0755354     0.3265844
C          -0.1889129    -0.4137325    -1.9187136
H          -1.0355857     0.2365547    -1.7505529
N           1.0369943    -0.1760158    -1.2966588
C           1.7927205    -1.1443181    -1.7310561
O           1.1827929    -2.0083953    -2.5887245
C          -0.1093819    -1.5137457    -2.6975088
H          -0.7763956    -2.0600364    -3.3432323
