20
099_C9H8N2O_16-0-8-9 (-165,) energy =    -532.4831225
N           3.0279508    -1.5581494    -1.2914854
H           3.3786754    -2.3716850    -1.7777327
C           5.9404716     0.5359062     0.9162538
H           6.7014370     1.0635115     1.4838042
C           4.6178034     0.9804284     0.9203480
H           4.3440762     1.8615599     1.4948857
C           3.6262893     0.3144586     0.1995508
H           2.6024931     0.6657203     0.1986966
C           3.9683206    -0.8230000    -0.5468264
C           5.2994970    -1.2697944    -0.5607344
H           5.5673718    -2.1481931    -1.1450452
C           6.2738697    -0.5962672     0.1698230
H           7.2986557    -0.9574100     0.1491437
C          -0.1530247    -0.3518960    -2.0001926
H          -0.9703033     0.3485169    -1.9027792
N           1.0384496    -0.1715749    -1.2971894
C           1.7660936    -1.1876762    -1.6641499
O           1.1667564    -2.0358995    -2.5444868
C          -0.0847266    -1.4723871    -2.7504388
H          -0.7372470    -1.9953524    -3.4294346
20
099_C9H8N2O_16-0-8-9 (-150,) energy =    -532.4821026
N           2.9487043    -1.6563810    -1.1340223
H           3.2961952    -2.4807230    -1.6058468
C           5.9343094     0.5665337     0.8430994
H           6.7115579     1.1278879     1.3534055
C           4.5956387     0.9437379     0.9609210
H           4.3263019     1.8051953     1.5664087
C           3.5846627     0.2311371     0.3165216
H           2.5483793     0.5329184     0.3988545
C           3.9215145    -0.8803091    -0.4691841
C           5.2672512    -1.2533367    -0.6045841
H           5.5305762    -2.1069529    -1.2263146
C           6.2631434    -0.5389998     0.0564542
H           7.3002725    -0.8439581    -0.0547657
C          -0.0904274    -0.2838714    -2.1184503
H          -0.8641751     0.4706085    -2.1066169
N           1.0633922    -0.1459746    -1.3462461
C           1.7438653    -1.2211846    -1.6204023
O           1.1465585    -2.0724093    -2.4982362
C          -0.0497150    -1.4420687    -2.8114837
H          -0.6912027    -1.9555106    -3.5080682
20
099_C9H8N2O_16-0-8-9 (-135,) energy =    -532.4804573
N           2.8775528    -1.7330099    -0.9782748
H           3.2100725    -2.5871649    -1.4077524
C           5.9253106     0.5967405     0.7744225
H           6.7151091     1.1881241     1.2286236
C           4.5850340     0.9008324     1.0209581
H           4.3275022     1.7339014     1.6695745
C           3.5612392     0.1453076     0.4510746
H           2.5218474     0.3884101     0.6330950
C           3.8833126    -0.9288628    -0.3887849
C           5.2266911    -1.2225105    -0.6590812
H           5.4757521    -2.0431119    -1.3289302
C           6.2402805    -0.4716391    -0.0667394
H           7.2780107    -0.7154582    -0.2779236
C           0.0123268    -0.2248558    -2.2496632
H          -0.7004787     0.5826682    -2.3390746
N           1.1300574    -0.1124537    -1.4220603
C           1.7388061    -1.2510855    -1.5777326
O           1.1269550    -2.1220084    -2.4243808
C           0.0008218    -1.4327149    -2.8536416
H          -0.6391542    -1.9501652    -3.5486963
20
099_C9H8N2O_16-0-8-9 (-120,) energy =    -532.4784026
N           2.8023003    -1.7779167    -0.8270607
H           3.1111220    -2.6720702    -1.1892819
C           5.9088034     0.6242856     0.7216564
H           6.7100299     1.2371475     1.1247596
C           4.5855739     0.8526147     1.1064733
H           4.3538851     1.6465269     1.8113022
C           3.5520367     0.0645307     0.6032230
H           2.5235919     0.2404646     0.8960648
C           3.8427645    -0.9584222    -0.3064901
C           5.1633753    -1.1712023    -0.7180474
H           5.3829183    -1.9485472    -1.4467125
C           6.1935032    -0.3932416    -0.1897723
H           7.2171369    -0.5742126    -0.5064466
C           0.1445200    -0.1697086    -2.3938553
H          -0.4847524     0.6841287    -2.6019723
N           1.2381438    -0.0684835    -1.5331947
C           1.7391200    -1.2677474    -1.5383767
O           1.0800762    -2.1677450    -2.3151922
C           0.0408112    -1.4303727    -2.8674528
H          -0.6181346    -1.9606770    -3.5345644
20
099_C9H8N2O_16-0-8-9 (-105,) energy =    -532.4763397
N           2.7262376    -1.7900164    -0.6880235
H           2.9998661    -2.7278405    -0.9582155
C           5.8929863     0.6491911     0.6799156
H           6.7060965     1.2738208     1.0390402
C           4.6086798     0.7977438     1.2086301
H           4.4190842     1.5392826     1.9798466
C           3.5638648    -0.0090371     0.7608740
H           2.5641501     0.0942489     1.1687825
C           3.8008170    -0.9638247    -0.2319155
C           5.0786458    -1.0950576    -0.7844480
H           5.2513207    -1.8202429    -1.5762703
C           6.1260101    -0.3018181    -0.3145954
H           7.1195610    -0.4175051    -0.7391780
C           0.2912279    -0.1582441    -2.5628040
H          -0.2422545     0.7173497    -2.9051511
N           1.3673758    -0.0497201    -1.6811411
C           1.7419714    -1.2820471    -1.5092895
O           1.0175321    -2.2093350    -2.1895680
C           0.0739196    -1.4544922    -2.8744325
H          -0.6149807    -2.0020630    -3.4958459
20
099_C9H8N2O_16-0-8-9 (-90,) energy =    -532.4748749
N          -0.1140207    -0.8024054    -1.5371868
H          -1.1035462    -1.0110571    -1.4670878
C           2.2884006    -2.9360024     1.2109590
H           2.8999282    -3.4996742     1.9101373
C           1.1342496    -2.2888762     1.6556123
H           0.8445563    -2.3447276     2.7014028
C           0.3519018    -1.5593228     0.7596324
H          -0.5402154    -1.0417712     1.1034230
C           0.7180022    -1.4860858    -0.5874161
C           1.8624907    -2.1480104    -1.0372092
H           2.1228334    -2.0931328    -2.0892690
C           2.6526097    -2.8600531    -0.1350753
H           3.5467190    -3.3671023    -0.4871971
C           0.8825173     2.4581127    -2.2236235
H           1.5964384     3.2697493    -2.2355188
N           1.2073752     1.2184957    -1.6713766
C           0.1227604     0.5215344    -1.8366825
O          -0.9007921     1.1760810    -2.4466160
C          -0.3847420     2.4424467    -2.6910396
H          -1.0462763     3.1421283    -3.1742054
20
099_C9H8N2O_16-0-8-9 (-75,) energy =    -532.4766099
N          -0.1784286    -0.7441526    -1.4034405
H          -1.1671187    -0.8599827    -1.2125692
C           2.2946955    -2.9691465     1.1991594
H           2.9226812    -3.5593802     1.8606021
C           1.0782439    -2.4609871     1.6559484
H           0.7537151    -2.6515431     2.6753301
C           0.2756248    -1.6953814     0.8090372
H          -0.6656361    -1.2855958     1.1682035
C           0.6835863    -1.4462900    -0.5048412
C           1.8898174    -1.9766743    -0.9731025
H           2.1869405    -1.7901142    -1.9994479
C           2.6984516    -2.7193691    -0.1148534
H           3.6403924    -3.1193008    -0.4801293
C           0.9678179     2.3733546    -2.4394489
H           1.7341268     3.1183259    -2.6013860
N           1.2685978     1.1434474    -1.8529064
C           0.1206242     0.5353821    -1.8219983
O          -0.9228276     1.2385611    -2.3354498
C          -0.3491206     2.4395005    -2.7327355
H          -1.0149718     3.1644097    -3.1705886
20
099_C9H8N2O_16-0-8-9 (-60,) energy =    -532.4787690
N          -0.2236764    -0.6528284    -1.2634424
H          -1.1988852    -0.6934558    -0.9923237
C           2.2802045    -3.0126165     1.1793720
H           2.9143496    -3.6376020     1.8016547
C           1.0212793    -2.6173794     1.6324491
H           0.6675554    -2.9312094     2.6108345
C           0.2109663    -1.8069204     0.8373213
H          -0.7649841    -1.4887054     1.1978080
C           0.6535499    -1.3941077    -0.4244649
C           1.9050746    -1.8113897    -0.8940380
H           2.2375682    -1.4944992    -1.8755989
C           2.7167269    -2.6013915    -0.0824303
H           3.6923681    -2.9107000    -0.4475266
C           1.0035544     2.2963859    -2.6423007
H           1.7938019     2.9654271    -2.9524353
N           1.2897841     1.0767774    -2.0278454
C           0.1149103     0.5688525    -1.8021404
O          -0.9338681     1.3284770    -2.2148809
C          -0.3325866     2.4550790    -2.7605404
H          -0.9964746     3.2076171    -3.1522078
20
099_C9H8N2O_16-0-8-9 (-45,) energy =    -532.4807799
N          -0.2334095    -0.5513518    -1.1195751
H          -1.1925563    -0.5376342    -0.7964028
C           2.2706873    -3.0648928     1.1585500
H           2.9031961    -3.7276967     1.7419670
C           0.9824542    -2.7543869     1.5963235
H           0.6029499    -3.1729219     2.5246265
C           0.1742195    -1.8972076     0.8519944
H          -0.8260800    -1.6502316     1.2022866
C           0.6471882    -1.3451851    -0.3461915
C           1.9316522    -1.6724424    -0.8022726
H           2.2942759    -1.2435815    -1.7281475
C           2.7362553    -2.5162348    -0.0382452
H           3.7354348    -2.7552606    -0.3926637
C           1.0057314     2.2180887    -2.8212326
H           1.7926283     2.8131561    -3.2626564
N           1.2877347     1.0169788    -2.1696242
C           0.1191819     0.6030402    -1.7761674
O          -0.9224499     1.4098696    -2.1129326
C          -0.3226712     2.4600103    -2.7947652
H          -0.9812224     3.2320177    -3.1563138
20
099_C9H8N2O_16-0-8-9 (-30,) energy =    -532.4822871
N          -0.2154720    -0.4430506    -0.9774496
H          -1.1615361    -0.3960551    -0.6231292
C           2.2622728    -3.1225986     1.1289876
H           2.8870697    -3.8256186     1.6721578
C           0.9545897    -2.8703365     1.5477612
H           0.5517785    -3.3750188     2.4218479
C           0.1558677    -1.9646623     0.8544373
H          -0.8609856    -1.7683491     1.1892612
C           0.6574327    -1.2993584    -0.2744783
C           1.9648027    -1.5603796    -0.7100026
H           2.3509424    -1.0434055    -1.5791687
C           2.7554017    -2.4611414     0.0031037
H           3.7704608    -2.6507149    -0.3360416
C           0.9958033     2.1410074    -2.9633508
H           1.7673329     2.6684872    -3.5060824
N           1.2814113     0.9725315    -2.2564337
C           0.1327115     0.6380571    -1.7434429
O          -0.8988146     1.4712467    -2.0495647
C          -0.3145215     2.4456675    -2.8468156
H          -0.9681481     3.2226932    -3.2064790
20
099_C9H8N2O_16-0-8-9 (-15,) energy =    -532.4831723
N          -0.1824077    -0.3244475    -0.8360406
H          -1.1238171    -0.2640263    -0.4736215
C           2.2476314    -3.1741868     1.0911483
H           2.8605523    -3.9173440     1.5927343
C           0.9274550    -2.9588769     1.4923662
H           0.5024809    -3.5336315     2.3109527
C           0.1435161    -2.0044328     0.8512095
H          -0.8840233    -1.8403717     1.1706492
C           0.6720124    -1.2484490    -0.2076941
C           1.9949577    -1.4648272    -0.6213189
H           2.4024989    -0.8796075    -1.4355651
C           2.7673804    -2.4218031     0.0372274
H           3.7927709    -2.5792442    -0.2871329
C           0.9716462     2.0751959    -3.0690117
H           1.7230939     2.5447487    -3.6877635
N           1.2718136     0.9513962    -2.2987255
C           0.1456639     0.6798307    -1.7032111
O          -0.8829113     1.5176545    -2.0094322
C          -0.3228201     2.4208509    -2.9020360
H          -0.9783000     3.1883022    -3.2784461
20
099_C9H8N2O_16-0-8-9 (0,) energy =    -532.4834540
N          -0.1304723    -0.2084449    -0.6936249
H          -1.0756315    -0.1562211    -0.3407625
C           2.2341486    -3.2254055     1.0490507
H           2.8311602    -4.0080557     1.5078875
C           0.9049543    -3.0338211     1.4326840
H           0.4570311    -3.6668384     2.1940668
C           0.1400915    -2.0311375     0.8449072
H          -0.8952521    -1.8876128     1.1486862
C           0.6974018    -1.2005194    -0.1412347
C           2.0320988    -1.3868438    -0.5315038
H           2.4605276    -0.7456711    -1.2910016
C           2.7831091    -2.3975545     0.0692403
H           3.8162602    -2.5344235    -0.2395531
C           0.9426540     2.0040461    -3.1481241
H           1.6704950     2.4211962    -3.8294772
N           1.2670411     0.9350669    -2.3124504
C           0.1639602     0.7157912    -1.6547019
O          -0.8697328     1.5423375    -1.9748457
C          -0.3404195     2.3750729    -2.9508447
H          -1.0049478     3.1219382    -3.3519435
20
099_C9H8N2O_16-0-8-9 (15,) energy =    -532.4831724
N          -0.0618141    -0.0875867    -0.5534547
H          -1.0124514    -0.0487436    -0.2127929
C           2.2180647    -3.2690908     1.0021658
H           2.7957291    -4.0900721     1.4166950
C           0.8800167    -3.0939349     1.3616023
H           0.4055575    -3.7787337     2.0594358
C           0.1393501    -2.0435869     0.8279691
H          -0.9037484    -1.9144457     1.1109210
C           0.7308661    -1.1474582    -0.0770802
C           2.0767863    -1.3126340    -0.4366133
H           2.5306935    -0.6230373    -1.1365908
C           2.8017575    -2.3748340     0.1040515
H           3.8426330    -2.4975444    -0.1839610
C           0.9106612     1.9315652    -3.2093482
H           1.6102001     2.2925129    -3.9498700
N           1.2633336     0.9172700    -2.3187400
C           0.1892597     0.7550492    -1.5999348
O          -0.8492078     1.5730543    -1.9257323
C          -0.3577075     2.3325868    -2.9782181
H          -1.0325066     3.0602187    -3.3971608
20
099_C9H8N2O_16-0-8-9 (30,) energy =    -532.4822872
N           0.0135489     0.0318248    -0.4347397
H          -0.9325884     0.0778505    -0.0804700
C           2.1930049    -3.2982326     0.9498853
H           2.7479149    -4.1537663     1.3237476
C           0.8435278    -3.1374653     1.2694471
H           0.3371384    -3.8681541     1.8944749
C           0.1310649    -2.0435352     0.7851151
H          -0.9222417    -1.9267704     1.0332299
C           0.7644657    -1.0900503    -0.0263466
C           2.1240283    -1.2371014    -0.3379092
H           2.6103025    -0.5027284    -0.9672494
C           2.8195095    -2.3451059     0.1453392
H           3.8705218    -2.4559851    -0.1083766
C           0.8605971     1.8351093    -3.2841101
H           1.5230181     2.1285847    -4.0860614
N           1.2443249     0.8766049    -2.3457058
C           0.2100518     0.7877634    -1.5602460
O          -0.8285667     1.6063912    -1.8813603
C          -0.3838453     2.2815768    -3.0095559
H          -1.0673251     2.9950140    -3.4387587
20
099_C9H8N2O_16-0-8-9 (45,) energy =    -532.4807799
N           2.9911487    -0.3856311    -1.9937055
H           2.9735645     0.3342657    -2.7050639
C           5.8337562     0.3195370     1.0395261
H           6.5803568     0.5026012     1.8068763
C           5.5203762     1.3125221     0.1103448
H           6.0205491     2.2765423     0.1482081
C           4.5563165     1.0804577    -0.8688175
H           4.3082597     1.8611796    -1.5852264
C           3.8983168    -0.1553216    -0.9317506
C           4.2262215    -1.1642055    -0.0154614
H           3.7153608    -2.1176637    -0.0664574
C           5.1789510    -0.9119427     0.9703270
H           5.4186231    -1.6952117     1.6845768
C           0.1071934    -2.2410269    -1.4096373
H          -0.4996164    -2.9412326    -0.8531660
N           1.3817312    -1.8816632    -0.9701004
C           1.7880730    -1.0384123    -1.8731409
O           0.9084038    -0.8068205    -2.8840466
C          -0.1838562    -1.6013270    -2.5628742
H          -1.0161542    -1.5667451    -3.2458725
20
099_C9H8N2O_16-0-8-9 (60,) energy =    -532.4787691
N           3.0768862    -0.5259255    -2.0573712
H           3.1070556     0.1506243    -2.8107360
C           5.7844615     0.3378596     1.0616597
H           6.4977318     0.5576846     1.8509035
C           5.3897333     1.3378941     0.1725582
H           5.7923199     2.3430433     0.2644655
C           4.4665434     1.0579308    -0.8349254
H           4.1497980     1.8423398    -1.5190786
C           3.9387666    -0.2316261    -0.9649175
C           4.3533185    -1.2447301    -0.0915882
H           3.9465012    -2.2429243    -0.2035803
C           5.2580123    -0.9491063     0.9261164
H           5.5654038    -1.7367792     1.6087021
C           0.0485284    -2.0747295    -1.3256172
H          -0.6175482    -2.6538419    -0.7017092
N           1.3376101    -1.7517260    -0.9003338
C           1.8190639    -1.0622616    -1.8913436
O           0.9778492    -0.8987702    -2.9463070
C          -0.1756753    -1.5668337    -2.5569625
H          -0.9920691    -1.5582009    -3.2597361
20
099_C9H8N2O_16-0-8-9 (75,) energy =    -532.4766099
N           3.1543837    -0.6779472    -2.0867681
H           3.2500873    -0.0725856    -2.8940683
C           5.7439875     0.3523161     1.0870277
H           6.4266993     0.6124702     1.8910629
C           5.2392015     1.3453662     0.2469812
H           5.5249096     2.3834774     0.3934934
C           4.3553111     1.0123749    -0.7803752
H           3.9488655     1.7871595    -1.4264456
C           3.9831749    -0.3207268    -0.9781450
C           4.5083944    -1.3211222    -0.1541771
H           4.2248036    -2.3534192    -0.3285659
C           5.3709859    -0.9789598     0.8855037
H           5.7670216    -1.7587069     1.5303091
C          -0.0075712    -1.8721933    -1.2610423
H          -0.7341028    -2.3028052    -0.5863865
N           1.2893273    -1.5813460    -0.8360332
C           1.8503977    -1.0850865    -1.8978569
O           1.0546215    -1.0179299    -2.9974546
C          -0.1578944    -1.5358508    -2.5606563
H          -0.9518948    -1.5695751    -3.2879747
20
099_C9H8N2O_16-0-8-9 (90,) energy =    -532.4748749
N           3.2005117    -0.8305050    -2.0935280
H           3.3753885    -0.3394324    -2.9629417
C           5.7120600     0.3682401     1.0894325
H           6.3717592     0.6714869     1.8977510
C           5.0704098     1.3333028     0.3112975
H           5.2265169     2.3897532     0.5119540
C           4.2178945     0.9447128    -0.7227752
H           3.7046978     1.6920995    -1.3227474
C           4.0152465    -0.4127947    -0.9874162
C           4.6706557    -1.3792282    -0.2214168
H           4.5136322    -2.4281238    -0.4511548
C           5.5067563    -0.9873107     0.8238000
H           6.0087050    -1.7421869     1.4227424
C          -0.0720439    -1.6351593    -1.2342956
H          -0.8508144    -1.9034498    -0.5342133
N           1.2318346    -1.3866132    -0.8038458
C           1.8626954    -1.1002728    -1.9036153
O           1.1056798    -1.1317322    -3.0323519
C          -0.1578008    -1.4824207    -2.5736925
H          -0.9314504    -1.5602595    -3.3193729
20
099_C9H8N2O_16-0-8-9 (105,) energy =    -532.4763400
N           3.2529709    -0.7546341    -2.0897068
H           3.6672244    -1.4123924    -2.7401511
C           5.7222073     0.3013178     1.1717697
H           6.3603405     0.5782744     2.0062591
C           4.8278593     1.2298155     0.6340745
H           4.7673714     2.2317624     1.0500370
C           4.0153054     0.8842231    -0.4445546
H           3.3212289     1.5988302    -0.8736025
C           4.0878008    -0.4035502    -0.9829058
C           4.9605445    -1.3448491    -0.4282168
H           4.9928680    -2.3538887    -0.8325155
C           5.7891763    -0.9852663     0.6352844
H           6.4744146    -1.7175772     1.0535732
C          -0.1376866    -1.0379934    -1.3627211
H          -1.0178015    -0.8555334    -0.7622485
N           1.1161548    -0.5706844    -0.9667879
C           1.9036220    -0.9786753    -1.9164819
O           1.2972412    -1.6734477    -2.9150481
C          -0.0381488    -1.7032778    -2.5340889
H          -0.7114577    -2.2225733    -3.1955839
20
099_C9H8N2O_16-0-8-9 (120,) energy =    -532.4784024
N           3.2522052    -0.8961528    -2.0194174
H           3.6416444    -1.6312715    -2.5973432
C           5.7612166     0.3232976     1.1486841
H           6.4121041     0.6386777     1.9591902
C           4.7455550     1.1667591     0.6924392
H           4.6032455     2.1425348     1.1489253
C           3.9123885     0.7757328    -0.3541961
H           3.1206671     1.4250915    -0.7090155
C           4.0883710    -0.4804073    -0.9455929
C           5.0851040    -1.3409039    -0.4715261
H           5.2012834    -2.3278328    -0.9141013
C           5.9296901    -0.9304687     0.5598224
H           6.7084590    -1.6011655     0.9127495
C          -0.1826761    -0.8459042    -1.4705759
H          -1.0771825    -0.5215291    -0.9577793
N           1.0789038    -0.4039367    -1.0705417
C           1.8841267    -0.9978838    -1.9000736
O           1.2816480    -1.7907898    -2.8253431
C          -0.0702836    -1.6793129    -2.5275302
H          -0.7440254    -2.2436277    -3.1505075
20
099_C9H8N2O_16-0-8-9 (135,) energy =    -532.4804574
N           3.2344581    -1.0310620    -1.9151958
H           3.6017273    -1.8195419    -2.4328223
C           5.8106899     0.3588984     1.1213204
H           6.4823231     0.7145586     1.8973550
C           4.6956676     1.1139106     0.7519981
H           4.4957207     2.0626738     1.2428074
C           3.8297635     0.6733719    -0.2479102
H           2.9585488     1.2532473    -0.5258954
C           4.0781008    -0.5498482    -0.8842969
C           5.1817974    -1.3230316    -0.4997778
H           5.3610613    -2.2834488    -0.9789108
C           6.0504736    -0.8611751     0.4872608
H           6.9075273    -1.4666268     0.7697933
C          -0.2125372    -0.6884564    -1.5998413
H          -1.1098168    -0.2496381    -1.1869185
N           1.0520470    -0.2807847    -1.1738820
C           1.8611101    -1.0196446    -1.8745460
O           1.2569611    -1.8774110    -2.7399233
C          -0.0980612    -1.6463284    -2.5449497
H          -0.7732568    -2.2356764    -3.1426073
20
099_C9H8N2O_16-0-8-9 (150,) energy =    -532.4821026
N           3.1998996    -1.1706158    -1.7848925
H           3.5503033    -1.9905484    -2.2622176
C           5.8571080     0.4018502     1.0839741
H           6.5524536     0.8012422     1.8165186
C           4.6633736     1.0689672     0.8044163
H           4.4250502     1.9943593     1.3222235
C           3.7617077     0.5728075    -0.1368165
H           2.8306086     1.0849943    -0.3428621
C           4.0580942    -0.6216703    -0.8087683
C           5.2487331    -1.3049553    -0.5189635
H           5.4723201    -2.2398673    -1.0293560
C           6.1444811    -0.7887706     0.4138999
H           7.0647006    -1.3276147     0.6233045
C          -0.2241562    -0.5698253    -1.7203715
H          -1.1112998    -0.0418146    -1.4006089
N           1.0382999    -0.2128011    -1.2456599
C           1.8354167    -1.0557352    -1.8358772
O           1.2234181    -1.9387518    -2.6711526
C          -0.1208359    -1.6049357    -2.5813279
H          -0.7992478    -2.1940957    -3.1754700
20
099_C9H8N2O_16-0-8-9 (165,) energy =    -532.4831225
N           3.1535610    -1.3062745    -1.6355684
H           3.4961378    -2.1362731    -2.0992789
C           5.8962136     0.4471243     1.0375510
H           6.6150156     0.8901003     1.7206661
C           4.6442466     1.0334005     0.8480092
H           4.3834663     1.9404256     1.3871857
C           3.7089942     0.4802875    -0.0269397
H           2.7358619     0.9331322    -0.1665388
C           4.0340615    -0.6911086    -0.7269705
C           5.2896158    -1.2895228    -0.5337609
H           5.5403435    -2.2022665    -1.0711575
C           6.2123153    -0.7196493     0.3383787
H           7.1800198    -1.1952405     0.4740194
C          -0.2156476    -0.4774937    -1.8286663
H          -1.0840607     0.1203720    -1.5911228
N           1.0352839    -0.1779931    -1.2884763
C           1.8115758    -1.0964822    -1.7888065
O           1.1945273    -1.9801863    -2.6206736
C          -0.1276249    -1.5583694    -2.6330282
H          -0.8054861    -2.1321056    -3.2426526
20
099_C9H8N2O_16-0-8-9 (180,) energy =    -532.4834539
N           3.0910553    -1.4409485    -1.4710033
H           3.4361548    -2.2614052    -1.9488358
C           5.9201413     0.4903518     0.9780635
H           6.6607741     0.9771533     1.6057493
C           4.6261686     1.0030935     0.8810711
H           4.3541407     1.8967961     1.4367416
C           3.6608566     0.3920389     0.0803314
H           2.6580706     0.7926396     0.0066129
C           4.0000367    -0.7620809    -0.6417883
C           5.3013966    -1.2823772    -0.5476375
H           5.5660301    -2.1777962    -1.1071227
C           6.2504622    -0.6587688     0.2562684
H           7.2523419    -1.0754441     0.3167754
C          -0.1972210    -0.4124557    -1.9194676
H          -1.0427804     0.2397063    -1.7529687
N           1.0300654    -0.1741022    -1.3003760
C           1.7837301    -1.1453292    -1.7319035
O           1.1711520    -2.0121771    -2.5848423
C          -0.1203550    -1.5158150    -2.6937609
H          -0.7892662    -2.0640448    -3.3358591
