23
289_C8H11ClN2O_12-0-1-2 (-165,) energy =    -956.3919033
C           2.6714547    -1.1754022    -0.6159371
N           1.3403738    -0.8445013    -0.6519277
C           0.3644229    -1.9152596    -0.7907041
H           0.8528904    -2.8671588    -0.5869892
H          -0.0557042    -1.9455714    -1.8060089
H          -0.4563838    -1.7537306    -0.0816180
C           0.8119046     0.5066138    -0.7483214
H           0.1472088     0.7338883     0.0930838
H           1.6254492     1.2310529    -0.7559484
H           0.2395222     0.6116075    -1.6808290
C           3.6538088     0.6893882     0.9747765
Cl          2.3846687     0.8749643     2.1533656
C           3.6369967    -0.1478801    -0.1400295
N           4.8924877    -0.0413476    -0.7186639
C           5.3480523    -0.7449114    -1.9130411
H           6.3806822    -0.4479199    -2.1075559
H           4.7335186    -0.4770912    -2.7783746
H           5.2849172    -1.8221452    -1.7590936
C           5.6493591     0.8455898    -0.0067947
H           6.6565917     1.0819791    -0.3199368
C           4.9154069     1.3165460     1.0632312
H           5.2389232     2.0147105     1.8210966
O           3.0722228    -2.3054606    -0.9104792
23
289_C8H11ClN2O_12-0-1-2 (-150,) energy =    -956.3893543
C           2.6606694    -1.1586601    -0.7356547
N           1.3258259    -0.8330063    -0.7783325
C           0.3377943    -1.8935865    -0.6513434
H           0.8561458    -2.8419700    -0.5143857
H          -0.2924491    -1.9637591    -1.5483183
H          -0.3107328    -1.6903372     0.2110173
C           0.7980382     0.5174399    -0.8723908
H           0.2054114     0.7823480     0.0113182
H           1.6140167     1.2334789    -0.9726541
H           0.1526222     0.5954686    -1.7583231
C           3.5845513     0.6550400     0.9416025
Cl          2.2727779     0.8120230     2.0768067
C           3.6115559    -0.1515243    -0.1961001
N           4.8911055    -0.0341752    -0.7182767
C           5.3919930    -0.7060206    -1.9128422
H           6.4340138    -0.4122057    -2.0550444
H           4.8161201    -0.4078994    -2.7946718
H           5.3145542    -1.7867083    -1.7932251
C           5.6212341     0.8261348     0.0505070
H           6.6425984     1.0645455    -0.2112625
C           4.8443972     1.2703640     1.1019734
H           5.1392936     1.9428661     1.8939486
O           3.0658636    -2.2846845    -1.0377054
23
289_C8H11ClN2O_12-0-1-2 (-135,) energy =    -956.3847556
C           2.6507813    -1.1629703    -0.8545902
N           1.3047218    -0.8583102    -0.9037756
C           0.3403320    -1.8781133    -0.5156933
H           0.8548233    -2.8354834    -0.4342734
H          -0.4587078    -1.9725030    -1.2623009
H          -0.1152996    -1.6134583     0.4487457
C           0.7874530     0.4970053    -1.0035832
H           0.2683588     0.8087627    -0.0889143
H           1.6032864     1.1951419    -1.1963232
H           0.0772409     0.5522069    -1.8397607
C           3.5163142     0.5906499     0.9108406
Cl          2.1687992     0.7027599     2.0085186
C           3.5820359    -0.1723474    -0.2554882
N           4.8785640    -0.0348382    -0.7290852
C           5.4192891    -0.6612111    -1.9307909
H           6.4636398    -0.3583549    -2.0308171
H           4.8688914    -0.3339437    -2.8184855
H           5.3443793    -1.7459482    -1.8523625
C           5.5811298     0.7947861     0.0964004
H           6.6108536     1.0414929    -0.1212962
C           4.7691890     1.1985255     1.1379857
H           5.0370878     1.8384309     1.9657921
O           3.0701136    -2.2768260    -1.1764067
23
289_C8H11ClN2O_12-0-1-2 (-120,) energy =    -956.3787581
C           2.6588140    -1.1713539    -0.9576010
N           1.2967170    -0.8908909    -1.0001681
C           0.3801432    -1.8361169    -0.3727408
H           0.8606142    -2.8140011    -0.3195665
H          -0.5389956    -1.9336358    -0.9636067
H           0.1117182    -1.4981713     0.6384105
C           0.7960709     0.4728311    -1.1112333
H           0.3826265     0.8510642    -0.1676539
H           1.5984133     1.1400363    -1.4321734
H           0.0027088     0.5004565    -1.8698981
C           3.4774146     0.5178974     0.8927809
Cl          2.1089139     0.5943102     1.9674357
C           3.5755666    -0.2114940    -0.2937933
N           4.8853168    -0.0561946    -0.7287843
C           5.4595622    -0.6382345    -1.9376624
H           6.4983976    -0.3098182    -2.0109303
H           4.9167898    -0.2985884    -2.8250865
H           5.4073087    -1.7260474    -1.8915231
C           5.5634550     0.7482774     0.1391411
H           6.5983960     1.0034315    -0.0412003
C           4.7226355     1.1179806     1.1709613
H           4.9677746     1.7305100     2.0260192
O           3.0919532    -2.2590769    -1.3375786
23
289_C8H11ClN2O_12-0-1-2 (-105,) energy =    -956.3739125
C           2.5097497    -0.4067248    -1.0315643
N           1.2087126    -0.2444732    -0.4369965
C           0.6681777    -1.5425944    -0.0097772
H           1.3610782    -2.0194943     0.6912834
H           0.4949543    -2.2259769    -0.8574508
H          -0.2798159    -1.3772307     0.5121141
C           0.2846008     0.4096051    -1.3742757
H          -0.6517846     0.6102114    -0.8435583
H           0.7069739     1.3658916    -1.6963999
H           0.0687865    -0.1965506    -2.2666995
C           3.7022862     0.5784900     1.0915628
Cl          2.4085659     0.9754118     2.1758267
C           3.6273422     0.0122278    -0.1940163
N           4.9500215    -0.1096829    -0.6331729
C           5.4118184    -0.6457654    -1.9117136
H           6.5041072    -0.6151823    -1.9047102
H           5.0283947    -0.0530032    -2.7430551
H           5.0737114    -1.6745721    -2.0453200
C           5.7867190     0.3643439     0.3249173
H           6.8566924     0.3627875     0.1685240
C           5.0509909     0.8019005     1.4130402
H           5.4331857     1.2303621     2.3277373
O           2.6567468    -0.7841463    -2.1895587
23
289_C8H11ClN2O_12-0-1-2 (-90,) energy =    -956.3784217
C           2.4580925    -0.2420281    -1.0565571
N           1.1688841    -0.1448721    -0.4603774
C           0.7284020    -1.4113811     0.1426345
H           1.4894480    -1.7796905     0.8368216
H           0.5374095    -2.1843264    -0.6194549
H          -0.1920082    -1.2390228     0.7091737
C           0.1620460     0.3383597    -1.4148238
H          -0.7589729     0.5404460    -0.8586317
H           0.5069724     1.2687820    -1.8717632
H          -0.0540302    -0.3819025    -2.2170027
C           3.6583306     0.5700448     1.1405889
Cl          2.3569398     0.9860966     2.2114651
C           3.5813007     0.0684415    -0.1687636
N           4.9021337    -0.0922915    -0.5926560
C           5.3604381    -0.5884577    -1.8883868
H           6.4489823    -0.6719509    -1.8417709
H           5.0712567     0.0916512    -2.6904959
H           4.9283162    -1.5674074    -2.1018689
C           5.7445095     0.3012807     0.3989928
H           6.8155337     0.2584366     0.2571560
C           5.0105614     0.7225865     1.4933275
H           5.3942827     1.0961043     2.4312082
O           2.6119729    -0.4132367    -2.2631995
23
289_C8H11ClN2O_12-0-1-2 (-75,) energy =    -956.3838027
C           2.4466175    -0.0997165    -1.1112514
N           1.1629099    -0.1197614    -0.5362777
C           0.8198653    -1.3431249     0.1995800
H           1.6465724    -1.6341216     0.8515174
H           0.5984591    -2.1753543    -0.4872974
H          -0.0595110    -1.1599465     0.8247637
C           0.1042421     0.2413637    -1.4834643
H          -0.8174178     0.4038346    -0.9156494
H           0.3737583     1.1638401    -2.0004325
H          -0.0743008    -0.5366162    -2.2398830
C           3.6315680     0.5751080     1.1452970
Cl          2.3184999     1.0463900     2.1815339
C           3.5625152     0.1083498    -0.1743553
N           4.8811236    -0.0966909    -0.5756626
C           5.3391492    -0.5785256    -1.8765002
H           6.4151392    -0.7540847    -1.8037474
H           5.1285600     0.1524280    -2.6579247
H           4.8374806    -1.5115816    -2.1397429
C           5.7207034     0.2314282     0.4443739
H           6.7911932     0.1388169     0.3247080
C           4.9822844     0.6592708     1.5319228
H           5.3605186     0.9949046     2.4862304
O           2.6193127    -0.0771573    -2.3290339
23
289_C8H11ClN2O_12-0-1-2 (-60,) energy =    -956.3882141
C           2.4440746     0.0359956    -1.1339617
N           1.1688933    -0.1147455    -0.5964482
C           0.8918778    -1.2787968     0.2481765
H           1.7675646    -1.5270164     0.8491984
H           0.6244165    -2.1528207    -0.3658183
H           0.0603288    -1.0594768     0.9252757
C           0.0783861     0.1721670    -1.5270139
H          -0.8409670     0.3061363    -0.9481758
H           0.2984730     1.0872358    -2.0776573
H          -0.0748525    -0.6376975    -2.2554080
C           3.6338676     0.5808275     1.1577399
Cl          2.3239770     1.1053064     2.1749510
C           3.5576915     0.1420005    -0.1683410
N           4.8676275    -0.1044761    -0.5651929
C           5.3084763    -0.5695160    -1.8775508
H           6.3740991    -0.7999990    -1.8083519
H           5.1343460     0.1938752    -2.6364314
H           4.7644405    -1.4707874    -2.1685204
C           5.7134806     0.1634790     0.4693689
H           6.7793230     0.0218602     0.3570167
C           4.9843735     0.5996815     1.5590347
H           5.3672923     0.8991673     2.5234573
O           2.6279946     0.2289806    -2.3365485
23
289_C8H11ClN2O_12-0-1-2 (-45,) energy =    -956.3909379
C           2.4425847     0.1434885    -1.1458237
N           1.1775275    -0.1365455    -0.6674638
C           0.9334113    -1.2229989     0.2774383
H           1.8398743    -1.4491067     0.8380491
H           0.6147997    -2.1304619    -0.2576830
H           0.1471502    -0.9429720     0.9861651
C           0.0757539     0.1012893    -1.5937665
H          -0.8451021     0.2297610    -1.0157335
H           0.2759120     1.0024700    -2.1729540
H          -0.0611904    -0.7350822    -2.2950083
C           3.6369876     0.5906149     1.1664612
Cl          2.3335691     1.1564998     2.1718009
C           3.5519757     0.1695059    -0.1625381
N           4.8529417    -0.1087687    -0.5602372
C           5.2775745    -0.5574047    -1.8830240
H           6.3365489    -0.8186694    -1.8241750
H           5.1202936     0.2275745    -2.6233873
H           4.7091260    -1.4385045    -2.1905311
C           5.7050245     0.1155410     0.4815738
H           6.7653249    -0.0637951     0.3712319
C           4.9865966     0.5597807     1.5742996
H           5.3749696     0.8325397     2.5444649
O           2.6385923     0.4705339    -2.3186314
23
289_C8H11ClN2O_12-0-1-2 (-30,) energy =    -956.3920962
C           2.4771639     0.2496826    -1.1761949
N           1.2295586    -0.1535901    -0.7646777
C           0.9894755    -1.1573004     0.2631776
H           1.9141451    -1.3914732     0.7885563
H           0.6046193    -2.0788634    -0.1975507
H           0.2531590    -0.8007880     0.9919049
C           0.1169570     0.0747539    -1.6769173
H          -0.7908874     0.2628144    -1.0934123
H           0.3398686     0.9354940    -2.3060985
H          -0.0587403    -0.7952610    -2.3263194
C           3.6883775     0.6028450     1.1444937
Cl          2.3988100     1.1994435     2.1516563
C           3.5875221     0.2037679    -0.1882940
N           4.8778291    -0.1002183    -0.5964068
C           5.2775653    -0.5443196    -1.9279344
H           6.3488473    -0.7550765    -1.9052391
H           5.0566539     0.2270580    -2.6658454
H           4.7424115    -1.4566473    -2.2071452
C           5.7403353     0.0807041     0.4469539
H           6.7939506    -0.1309948     0.3305315
C           5.0382504     0.5266487     1.5488554
H           5.4368649     0.7729616     2.5219345
O           2.6769728     0.6957178    -2.3095985
23
289_C8H11ClN2O_12-0-1-2 (-15,) energy =    -956.3921324
C           2.4610839     0.3106600    -1.1389852
N           1.2419556    -0.2233108    -0.8084394
C           0.9890840    -1.1461139     0.2865657
H           1.9180327    -1.3920571     0.7986531
H           0.5518499    -2.0725554    -0.1108084
H           0.2889618    -0.7176985     1.0132420
C           0.1196195     0.0055770    -1.7070631
H          -0.7561028     0.3282801    -1.1309441
H           0.3964374     0.7743153    -2.4267979
H          -0.1424814    -0.9135754    -2.2494548
C           3.6817687     0.5816740     1.1903580
Cl          2.3996104     1.1771442     2.2088838
C           3.5710236     0.2145634    -0.1492290
N           4.8552169    -0.0915484    -0.5710363
C           5.2391037    -0.5069149    -1.9157783
H           6.3106052    -0.7173085    -1.9121195
H           5.0090401     0.2812544    -2.6332766
H           4.7014111    -1.4140941    -2.2079425
C           5.7249098     0.0524258     0.4735658
H           6.7750691    -0.1699502     0.3467020
C           5.0327910     0.4800400     1.5883147
H           5.4379224     0.6996023     2.5651076
O           2.6609858     0.8636751    -2.2246447
23
289_C8H11ClN2O_12-0-1-2 (0,) energy =    -956.3913111
C           2.4904240    -0.8961719     0.2620658
N           1.2994688    -0.8803446    -0.4181379
C           0.8738249     0.1351526    -1.3673325
H           1.7184308     0.7549629    -1.6645728
H           0.0940131     0.7796394    -0.9435971
H           0.4683530    -0.3567420    -2.2609139
C           0.3086441    -1.9021000    -0.1077216
H           0.0389101    -2.4553914    -1.0164181
H           0.7332641    -2.5874885     0.6238358
H          -0.6017385    -1.4426229     0.2996309
C           3.3980342     1.5895138     0.2346720
Cl          1.9885031     2.4941512     0.7173329
C           3.4631889     0.2138702     0.0324592
N           4.7933179    -0.0743219    -0.2252000
C           5.3440858    -1.3995283    -0.4841679
H           6.4203309    -1.2968403    -0.6367651
H           4.8993625    -1.8352121    -1.3848765
H           5.1434336    -2.0581349     0.3615342
C           5.5215497     1.0836314    -0.2160025
H           6.5812170     1.0657925    -0.4284038
C           4.6881462     2.1434811     0.0758029
H           4.9624505     3.1834812     0.1739078
O           2.8066275    -1.8271997     1.0081734
23
289_C8H11ClN2O_12-0-1-2 (15,) energy =    -956.3921387
C           2.4976914    -0.9274319     0.2156392
N           1.2569711    -0.8215539    -0.3584099
C           0.8797299     0.1265363    -1.3945425
H           1.7367925     0.7313353    -1.6866874
H           0.0795073     0.7923364    -1.0508524
H           0.5197299    -0.4210228    -2.2765396
C           0.2600961    -1.8350860    -0.0440559
H           0.0980841    -2.5050697    -0.8999606
H           0.6102710    -2.4221935     0.8034663
H          -0.6933510    -1.3521723     0.2020332
C           3.3886848     1.5601903     0.2479829
Cl          1.9699076     2.4481088     0.7325874
C           3.4673370     0.1877648     0.0208508
N           4.8022100    -0.0833081    -0.2349467
C           5.3695862    -1.3961279    -0.5231880
H           6.4474780    -1.2787426    -0.6520093
H           4.9458920    -1.8080511    -1.4449315
H           5.1580402    -2.0811850     0.2979029
C           5.5191980     1.0798609    -0.1972748
H           6.5802385     1.0764209    -0.4036262
C           4.6746142     2.1270907     0.1099658
H           4.9395889     3.1672587     0.2295083
O           2.8273981    -1.9115907     0.8844356
23
289_C8H11ClN2O_12-0-1-2 (30,) energy =    -956.3920962
C           2.5487531    -0.9970498     0.1600256
N           1.2607750    -0.8077359    -0.2801645
C           0.8903053     0.0763405    -1.3768513
H           1.7338759     0.7040707    -1.6600788
H           0.0531428     0.7226505    -1.0909332
H           0.5871937    -0.5192002    -2.2504176
C           0.2863082    -1.8440261     0.0340351
H           0.2163755    -2.5907476    -0.7703499
H           0.5849672    -2.3511785     0.9505676
H          -0.6977289    -1.3811405     0.1660732
C           3.4127410     1.4956854     0.2909884
Cl          1.9852020     2.3598462     0.7896351
C           3.5078109     0.1306133     0.0202496
N           4.8469789    -0.1157170    -0.2439649
C           5.4379206    -1.4122562    -0.5598052
H           6.4978165    -1.2566714    -0.7719197
H           4.9601920    -1.8494788    -1.4414541
H           5.3138657    -2.0984104     0.2781324
C           5.5498172     1.0525017    -0.1631240
H           6.6120011     1.0684243    -0.3630943
C           4.6922619     2.0797800     0.1763991
H           4.9450955     3.1186230     0.3291334
O           2.9017945    -2.0432901     0.7115854
23
289_C8H11ClN2O_12-0-1-2 (45,) energy =    -956.3909379
C           2.5147246    -0.9697710     0.0593985
N           1.1990350    -0.6996895    -0.2625319
C           0.8391538     0.0926882    -1.4353224
H           1.6622981     0.7484172    -1.7173349
H          -0.0401320     0.7099332    -1.2237087
H           0.6071025    -0.5666824    -2.2854644
C           0.2324604    -1.7414813     0.0674915
H           0.2022168    -2.5327066    -0.6960907
H           0.5005359    -2.1973723     1.0203524
H          -0.7604118    -1.2861292     0.1413954
C           3.3752490     1.5173764     0.2755828
Cl          1.9400508     2.3835926     0.7443141
C           3.4781723     0.1548284    -0.0136552
N           4.8243425    -0.0849134    -0.2554174
C           5.4314207    -1.3737677    -0.5742667
H           6.4751815    -1.1952648    -0.8423056
H           4.9204811    -1.8402276    -1.4200837
H           5.3683558    -2.0494030     0.2793121
C           5.5227427     1.0811700    -0.1361567
H           6.5900052     1.1010953    -0.3068224
C           4.6562747     2.1023603     0.2013963
H           4.9047222     3.1386154     0.3771829
O           2.8664678    -2.0670823     0.4987601
23
289_C8H11ClN2O_12-0-1-2 (60,) energy =    -956.3882139
C           2.5133382    -0.9796660    -0.0570938
N           1.1769080    -0.6465061    -0.2582790
C           0.7982979     0.0352070    -1.4979766
H           1.5820434     0.7302586    -1.8019994
H          -0.1250087     0.6027823    -1.3449569
H           0.6344194    -0.6907234    -2.3095707
C           0.2259858    -1.6914601     0.1174729
H           0.1885431    -2.5082781    -0.6182938
H           0.5096839    -2.1152034     1.0813339
H          -0.7679636    -1.2395870     0.1953437
C           3.3581119     1.4996409     0.2663454
Cl          1.9105304     2.3654075     0.6912175
C           3.4766709     0.1409154    -0.0448989
N           4.8329023    -0.0865961    -0.2524980
C           5.4621944    -1.3602840    -0.5908390
H           6.5106699    -1.1618876    -0.8249779
H           4.9785002    -1.8083361    -1.4616266
H           5.3855761    -2.0616535     0.2405136
C           5.5197779     1.0783730    -0.0834865
H           6.5926080     1.1064542    -0.2137043
C           4.6377112     2.0890568     0.2475890
H           4.8759231     3.1219353     0.4545991
O           2.8636033    -2.1199873     0.2499273
23
289_C8H11ClN2O_12-0-1-2 (75,) energy =    -956.3838025
C           2.5163326    -0.9582773    -0.1848968
N           1.1661754    -0.5699239    -0.2571270
C           0.7383048    -0.0096716    -1.5450766
H           1.4714045     0.7176749    -1.9009651
H          -0.2198064     0.5044110    -1.4206778
H           0.6207501    -0.7976993    -2.3057611
C           0.2436078    -1.6142478     0.1971765
H           0.1789047    -2.4597549    -0.5030188
H           0.5713819    -1.9975945     1.1648973
H          -0.7489762    -1.1656560     0.3059729
C           3.3733938     1.4944283     0.2632807
Cl          1.9258267     2.3807631     0.6362358
C           3.4910020     0.1386941    -0.0717416
N           4.8542814    -0.0953128    -0.2409251
C           5.4914796    -1.3613891    -0.5947937
H           6.5488683    -1.1585148    -0.7808908
H           5.0396630    -1.7810725    -1.4954812
H           5.3834265    -2.0892683     0.2100736
C           5.5424507     1.0576735    -0.0172902
H           6.6201266     1.0782673    -0.1012424
C           4.6572785     2.0696687     0.3043563
H           4.8974427     3.0951079     0.5435194
O           2.8540939    -2.1328632    -0.0447991
23
289_C8H11ClN2O_12-0-1-2 (90,) energy =    -956.3784217
C           2.5217938    -0.9169997    -0.3337551
N           1.1619880    -0.4975107    -0.2911220
C           0.6556267    -0.0853602    -1.6084252
H           1.3182953     0.6676786    -2.0449204
H          -0.3351709     0.3638161    -1.4884452
H           0.5780302    -0.9373486    -2.3032638
C           0.2905803    -1.5299024     0.2857578
H           0.1935669    -2.4199377    -0.3525392
H           0.6854641    -1.8432459     1.2549535
H          -0.6999234    -1.0885282     0.4359962
C           3.3995040     1.4925814     0.2580176
Cl          1.9591080     2.4095605     0.5710630
C           3.5089089     0.1428502    -0.1136759
N           4.8772295    -0.1084399    -0.2355343
C           5.5146039    -1.3704819    -0.6045262
H           6.5872101    -1.1824834    -0.6953292
H           5.1262315    -1.7353171    -1.5567163
H           5.3313801    -2.1351256     0.1513355
C           5.5710576     1.0230774     0.0578698
H           6.6518356     1.0273792     0.0267165
C           4.6887716     2.0410813     0.3724713
H           4.9357908     3.0545393     0.6521776
O           2.8417797    -2.1017857    -0.3875477
23
289_C8H11ClN2O_12-0-1-2 (105,) energy =    -956.3739121
C           2.5358813    -0.8731476    -0.4858521
N           1.1647674    -0.4486811    -0.3770370
C           0.5845971    -0.2248837    -1.7088117
H           1.1779990     0.5189137    -2.2507461
H          -0.4288419     0.1719032    -1.5913507
H           0.5394159    -1.1485668    -2.3090271
C           0.3703761    -1.4376690     0.3659005
H           0.2899969    -2.4064692    -0.1490737
H           0.8193936    -1.6019482     1.3498048
H          -0.6334934    -1.0259679     0.5119244
C           3.4203701     1.4766047     0.2867904
Cl          1.9879187     2.4086795     0.5807946
C           3.5259389     0.1444960    -0.1527408
N           4.8970098    -0.1206785    -0.2360689
C           5.5330833    -1.3709326    -0.6454138
H           6.6137789    -1.2100459    -0.6277120
H           5.2196698    -1.6537146    -1.6514288
H           5.2670632    -2.1829294     0.0326240
C           5.5916074     0.9829591     0.1412961
H           6.6728584     0.9738038     0.1521607
C           4.7108828     1.9980613     0.4738029
H           4.9613587     2.9931164     0.8106164
O           2.8439434    -2.0308275    -0.7504033
23
289_C8H11ClN2O_12-0-1-2 (120,) energy =    -956.3787648
C           2.6472759    -0.7795091    -1.1405728
N           1.2957953    -0.9136988    -0.8385081
C           0.3170718    -0.5389053    -1.8524859
H           0.7914845    -0.5725870    -2.8342873
H          -0.0669629     0.4731852    -1.6600996
H          -0.5282341    -1.2383453    -1.8528332
C           0.8007179    -0.8687798     0.5307554
H           0.0909736    -1.6932893     0.6802534
H           1.6275919    -0.9993248     1.2317845
H           0.2881256     0.0727312     0.7654643
C           3.2706376     1.3803304     0.2382477
Cl          1.7972217     2.3073203     0.1835089
C           3.4892039     0.1142381    -0.3088149
N           4.8374806    -0.1567355    -0.1142218
C           5.5395294    -1.3611857    -0.5457604
H           6.5515302    -1.3273897    -0.1365381
H           5.5713711    -1.4138187    -1.6346726
H           5.0339383    -2.2548628    -0.1703861
C           5.4247900     0.8877330     0.5367322
H           6.4738620     0.8546974     0.7957891
C           4.4822556     1.8715293     0.7658473
H           4.6385171     2.8276096     1.2432654
O           3.1196952    -1.2799040    -2.1610703
23
289_C8H11ClN2O_12-0-1-2 (135,) energy =    -956.3847538
C           2.6170409    -0.7066842    -1.1796795
N           1.2823018    -0.8447550    -0.8533380
C           0.2829092    -0.7155666    -1.9043659
H           0.7859292    -0.7176973    -2.8713596
H          -0.2762498     0.2216189    -1.7745020
H          -0.4295561    -1.5503085    -1.8791852
C           0.7683680    -0.7968491     0.5059038
H           0.1462853    -1.6836879     0.6884150
H           1.5941190    -0.8015847     1.2190006
H           0.1566941     0.0960564     0.6841853
C           3.2897687     1.3760843     0.2880349
Cl          1.8359298     2.3348374     0.2610423
C           3.4786146     0.1261243    -0.3028943
N           4.8175395    -0.1862471    -0.1164414
C           5.4848393    -1.3971066    -0.5831809
H           6.5208370    -1.3669819    -0.2393112
H           5.4466501    -1.4519366    -1.6714580
H           5.0001041    -2.2872741    -0.1712672
C           5.4290306     0.8178321     0.5764753
H           6.4756165     0.7465808     0.8376783
C           4.5113861     1.8159918     0.8397046
H           4.6899982     2.7490366     1.3534893
O           3.0701945    -1.1498991    -2.2371972
23
289_C8H11ClN2O_12-0-1-2 (150,) energy =    -956.3893519
C           2.6037008    -0.6009341    -1.1796893
N           1.2785950    -0.7323009    -0.8386972
C           0.2889717    -0.8701971    -1.8964634
H           0.7956519    -0.8239697    -2.8598122
H          -0.4475235    -0.0596229    -1.8184766
H          -0.2433471    -1.8284375    -1.8249330
C           0.7548462    -0.6785897     0.5155288
H           0.2083552    -1.6070236     0.7321407
H           1.5719257    -0.5812292     1.2307364
H           0.0684920     0.1658682     0.6500550
C           3.3378473     1.4168860     0.3527249
Cl          1.9123445     2.4177780     0.3572372
C           3.4872296     0.1801573    -0.2748178
N           4.8141357    -0.1818277    -0.0966712
C           5.4430800    -1.3993473    -0.5977476
H           6.4825212    -1.4058702    -0.2631150
H           5.3937202    -1.4267743    -1.6865225
H           4.9377708    -2.2857232    -0.2022826
C           5.4565792     0.7798821     0.6291166
H           6.4992699     0.6653408     0.8902771
C           4.5717171     1.7986870     0.9214325
H           4.7789389     2.7083493     1.4655272
O           3.0455803    -1.0257793    -2.2508820
23
289_C8H11ClN2O_12-0-1-2 (165,) energy =    -956.3919021
C           2.6241347    -0.4490024    -1.2061192
N           1.3051799    -0.5774715    -0.8492709
C           0.3476042    -0.9753832    -1.8702712
H           0.8105352    -0.8669152    -2.8501083
H          -0.5432331    -0.3393825    -1.8020427
H           0.0365584    -2.0218877    -1.7419935
C           0.7969163    -0.5360825     0.5122975
H           0.3363765    -1.5023510     0.7626062
H           1.6087865    -0.3457187     1.2131889
H           0.0403553     0.2482971     0.6297479
C           3.4347764     1.4934603     0.3891081
Cl          2.0432238     2.5401883     0.4348977
C           3.5353538     0.2727679    -0.2774463
N           4.8479852    -0.1443822    -0.1172144
C           5.4326867    -1.3644793    -0.6636950
H           6.4688557    -1.4242135    -0.3241965
H           5.3894071    -1.3474664    -1.7529135
H           4.8913603    -2.2456393    -0.3062621
C           5.5279482     0.7681771     0.6382340
H           6.5652924     0.6041418     0.8941121
C           4.6832879     1.8094459     0.9668553
H           4.9252292     2.6907760     1.5423354
O           3.0516722    -0.8616655    -2.2883300
23
289_C8H11ClN2O_12-0-1-2 (180,) energy =    -956.3918614
C           2.6628215    -1.1935025    -0.4659882
N           1.3321047    -0.8644356    -0.5399355
C           0.3977393    -1.9115923    -0.9320067
H           0.8359862    -2.8826604    -0.7072708
H           0.1787089    -1.8625836    -2.0084037
H          -0.5408819    -1.7880098    -0.3804270
C           0.8113474     0.4918847    -0.6399635
H           0.0822386     0.6911653     0.1535131
H           1.6185426     1.2179910    -0.5628979
H           0.3124666     0.6246408    -1.6104235
C           3.6904365     0.7446271     1.0101091
Cl          2.4630614     0.9666852     2.2266241
C           3.6359746    -0.1380848    -0.0670107
N           4.8664541    -0.0490775    -0.6989792
C           5.2819977    -0.7976453    -1.8805785
H           6.3018883    -0.4973608    -2.1294944
H           4.6297048    -0.5733517    -2.7305443
H           5.2394171    -1.8680764    -1.6795234
C           5.6426400     0.8746169    -0.0566871
H           6.6325721     1.1074307    -0.4230279
C           4.9483754     1.3856206     1.0210560
H           5.2948252     2.1197265     1.7334608
O           3.0679929    -2.3305892    -0.7248214
