25
203_C12H10O2S_0-6-11-20 (-165,) energy =   -1011.8647495
C          -0.1380604    -0.4385825    -1.1815172
H          -0.0127399    -0.9883904    -2.1088229
C          -1.3969977     0.0012417    -0.7780175
H          -2.2615415    -0.1957051    -1.4055053
C          -1.5475247     0.6884517     0.4295235
H          -2.5313035     1.0272578     0.7421250
C           0.9684524    -0.1852179    -0.3647118
C          -0.4362993     0.9390809     1.2349387
H          -0.5512647     1.4724211     2.1743435
C           0.8317406     0.5088132     0.8378405
H           1.6957805     0.7091667     1.4622126
S           2.5740004    -0.6994930    -1.0164546
O           2.4326139    -2.0978138    -1.4560385
O           3.0316890     0.3318059    -1.9634271
C           5.4628683    -0.6392759     2.5246117
H           6.1564391    -0.6292306     3.3609485
C           5.3798932     0.4688356     1.6781209
H           6.0101018     1.3364423     1.8514093
C           4.4936877     0.4608319     0.5999486
H           4.4261877     1.3003075    -0.0839637
C           3.6964732    -0.6659990     0.3908530
C           3.7774996    -1.7856186     1.2220744
H           3.1663382    -2.6578824     1.0143575
C           4.6667489    -1.7649876     2.2961826
H           4.7445602    -2.6296350     2.9490488
25
203_C12H10O2S_0-6-11-20 (-150,) energy =   -1011.8659677
C          -0.1566596    -0.6099861    -1.0581992
H          -0.0291634    -1.2879360    -1.8956799
C          -1.4260438    -0.2196377    -0.6321359
H          -2.3044451    -0.5878282    -1.1544764
C          -1.5671155     0.6356175     0.4628200
H          -2.5577517     0.9340259     0.7944866
C           0.9655641    -0.1356340    -0.3755387
C          -0.4372592     1.1077447     1.1343237
H          -0.5460585     1.7729832     1.9862164
C           0.8378301     0.7309383     0.7118338
H           1.7173211     1.1004704     1.2293100
S           2.5821002    -0.5657506    -1.0585774
O           2.4625248    -1.9210668    -1.6217194
O           3.0401111     0.5544341    -1.8984672
C           5.4097100    -0.7813870     2.5278148
H           6.0867937    -0.8365621     3.3758244
C           5.3845768     0.3656185     1.7315697
H           6.0438124     1.1994857     1.9553026
C           4.5186374     0.4407648     0.6391229
H           4.4953163     1.3117133    -0.0073836
C           3.6832765    -0.6432933     0.3648034
C           3.7069104    -1.8017193     1.1451399
H           3.0680313    -2.6407865     0.8890586
C           4.5755496    -1.8638024     2.2340069
H           4.6079246    -2.7593763     2.8478455
25
203_C12H10O2S_0-6-11-20 (-135,) energy =   -1011.8670464
C          -0.1412328    -0.7431147    -0.8987096
H           0.0076546    -1.5258283    -1.6349093
C          -1.4162597    -0.4042404    -0.4428933
H          -2.2840222    -0.9263150    -0.8359079
C          -1.5750127     0.5989317     0.5146082
H          -2.5688896     0.8571660     0.8695532
C           0.9644170    -0.0666663    -0.3828217
C          -0.4594834     1.2736209     1.0184757
H          -0.5844016     2.0556935     1.7619659
C           0.8180383     0.9495410     0.5645032
H           1.6869963     1.4756243     0.9475244
S           2.5864424    -0.4451764    -1.0814681
O           2.4768484    -1.7604087    -1.7348249
O           3.0494340     0.7348691    -1.8307391
C           5.3545437    -0.8954514     2.5306952
H           6.0155138    -1.0044568     3.3861623
C           5.3582617     0.2923898     1.7967201
H           6.0240315     1.1041626     2.0756793
C           4.5126110     0.4375952     0.6954154
H           4.5129140     1.3415940     0.0954424
C           3.6685069    -0.6183874     0.3490000
C           3.6643555    -1.8171961     1.0660591
H           3.0195087    -2.6326579     0.7546731
C           4.5123284    -1.9494019     2.1647548
H           4.5223485    -2.8769081     2.7300727
25
203_C12H10O2S_0-6-11-20 (-120,) energy =   -1011.8678899
C          -0.0572374    -0.8457498    -0.7392721
H           0.1333507    -1.7131668    -1.3621329
C          -1.3366037    -0.5554913    -0.2611089
H          -2.1665112    -1.2092958    -0.5137701
C          -1.5480544     0.5707807     0.5355023
H          -2.5446591     0.7920130     0.9074661
C           0.9972659     0.0039578    -0.4071030
C          -0.4834050     1.4196653     0.8529817
H          -0.6518681     2.3002006     1.4663824
C           0.7963082     1.1442397     0.3751262
H           1.6248700     1.8077841     0.6020144
S           2.6301452    -0.3361829    -1.0971848
O           2.5345410    -1.6130026    -1.8243602
O           3.1022966     0.8898486    -1.7616526
C           5.3222078    -0.9997667     2.5409430
H           5.9638990    -1.1586340     3.4032410
C           5.3383053     0.2300390     1.8798286
H           5.9949711     1.0248357     2.2221261
C           4.5170388     0.4398857     0.7707379
H           4.5284699     1.3786247     0.2269580
C           3.6851911    -0.5949480     0.3414760
C           3.6691668    -1.8345638     0.9849932
H           3.0349008    -2.6313850     0.6102306
C           4.4922339    -2.0313503     2.0929306
H           4.4922452    -2.9913094     2.6013336
25
203_C12H10O2S_0-6-11-20 (-105,) energy =   -1011.8685230
C           0.0709893    -0.6702893     1.6671373
H           0.2926217    -1.1559205     2.6114492
C          -1.0193500     0.1901928     1.5281827
H          -1.6592571     0.3911466     2.3827102
C          -1.2902462     0.7840804     0.2940705
H          -2.1399079     1.4533176     0.1903491
C           0.8790727    -0.9216101     0.5581674
C          -0.4791984     0.5139419    -0.8118747
H          -0.7003670     0.9665957    -1.7742689
C           0.6095551    -0.3474471    -0.6864269
H           1.2311634    -0.5866600    -1.5430969
S           2.2666945    -2.0622595     0.7274339
O           2.1410053    -2.7055762     2.0458211
O           2.3445622    -2.8506893    -0.5135921
C           5.9798273     0.6078297     0.8528787
H           6.8630654     1.2398777     0.8838826
C           5.5924088     0.0123996    -0.3495123
H           6.1755197     0.1748624    -1.2515373
C           4.4595867    -0.8013107    -0.3948603
H           4.1541197    -1.2926379    -1.3125424
C           3.7271213    -1.0055761     0.7753051
C           4.1102791    -0.4265987     1.9870337
H           3.5402079    -0.6284454     2.8879313
C           5.2428409     0.3861387     2.0193003
H           5.5545779     0.8394743     2.9559470
25
203_C12H10O2S_0-6-11-20 (-90,) energy =   -1011.8687517
C           0.2393723    -0.4991793     1.6399781
H           0.5646784    -0.8431053     2.6160996
C          -0.8372258     0.3773088     1.5047556
H          -1.3526282     0.7383948     2.3902085
C          -1.2568813     0.7810548     0.2348940
H          -2.0970036     1.4627590     0.1346584
C           0.8854287    -0.9590128     0.4909945
C          -0.6084820     0.3039384    -0.9067943
H          -0.9464041     0.6082080    -1.8933443
C           0.4694935    -0.5729282    -0.7844816
H           0.9705599    -0.9729864    -1.6596130
S           2.2778323    -2.0934905     0.6577532
O           2.1324482    -2.7762214     1.9541437
O           2.3854073    -2.8421584    -0.6055670
C           5.9577985     0.6102133     0.9522211
H           6.8320313     1.2516424     1.0217936
C           5.5177345     0.1689622    -0.2980723
H           6.0506385     0.4606185    -1.1986440
C           4.3970300    -0.6559671    -0.3940121
H           4.0544633    -1.0279291    -1.3538232
C           3.7279076    -1.0269505     0.7737667
C           4.1636709    -0.6026232     2.0303035
H           3.6425358    -0.9340647     2.9222021
C           5.2856886     0.2219519     2.1137314
H           5.6387704     0.5548693     3.0856134
25
203_C12H10O2S_0-6-11-20 (-75,) energy =   -1011.8684801
C           0.4141335    -0.2830253     1.5642312
H           0.8638851    -0.4605941     2.5357413
C          -0.6642691     0.5891767     1.4255715
H          -1.0507852     1.1112789     2.2962228
C          -1.2514633     0.7838192     0.1720664
H          -2.0933253     1.4630730     0.0698795
C           0.8951813    -0.9502558     0.4351722
C          -0.7652812     0.1049496    -0.9468052
H          -1.2294504     0.2509233    -1.9180556
C           0.3175064    -0.7671658    -0.8212504
H           0.7060704    -1.3145354    -1.6733880
S           2.2923562    -2.0798614     0.5992927
O           2.1291832    -2.8051632     1.8702150
O           2.4298721    -2.7893448    -0.6834604
C           5.9467187     0.6325973     1.0686555
H           6.8162428     1.2745345     1.1800313
C           5.4450629     0.3563480    -0.2061113
H           5.9259279     0.7774162    -1.0844445
C           4.3315291    -0.4694304    -0.3553492
H           3.9436020    -0.7133735    -1.3389137
C           3.7292083    -1.0061110     0.7846726
C           4.2255265    -0.7469871     2.0628760
H           3.7542232    -1.2062690     2.9253252
C           5.3420320     0.0791012     2.1992363
H           5.7429141     0.2840365     3.1878429
25
203_C12H10O2S_0-6-11-20 (-60,) energy =   -1011.8677664
C           0.5867100    -0.0895293     1.4513715
H           1.1798840    -0.1015851     2.3604299
C          -0.5067645     0.7660188     1.3310868
H          -0.7628466     1.4316796     2.1504248
C          -1.2733874     0.7638719     0.1619071
H          -2.1259671     1.4316107     0.0738986
C           0.9030770    -0.9393620     0.3884601
C          -0.9476265    -0.0917084    -0.8915847
H          -1.5451487    -0.0932469    -1.7988044
C           0.1505455    -0.9474805    -0.7854743
H           0.4281332    -1.6180151    -1.5916826
S           2.2992356    -2.0756811     0.5261526
O           2.1193079    -2.8675387     1.7543840
O           2.4585156    -2.7252184    -0.7856651
C           5.9358191     0.6153370     1.2018739
H           6.8019690     1.2515537     1.3618205
C           5.4242993     0.4490683    -0.0882704
H           5.8943413     0.9498471    -0.9298489
C           4.3153268    -0.3687273    -0.3004966
H           3.9189686    -0.5261505    -1.2984086
C           3.7264986    -1.0073605     0.7933638
C           4.2334740    -0.8598204     2.0850171
H           3.7716537    -1.3975234     2.9063998
C           5.3456633    -0.0401052     2.2843764
H           5.7542384     0.0798856     3.2837454
25
203_C12H10O2S_0-6-11-20 (-45,) energy =   -1011.8668177
C           0.7114113     0.0795687     1.2589017
H           1.4387356     0.2024929     2.0553199
C          -0.3997705     0.9184338     1.1832921
H          -0.5354850     1.6998466     1.9255946
C          -1.3337975     0.7547927     0.1568747
H          -2.1981505     1.4108574     0.1027040
C           0.8752966    -0.9182905     0.2954610
C          -1.1564337    -0.2445812    -0.8016438
H          -1.8801511    -0.3676638    -1.6023534
C          -0.0437024    -1.0847498    -0.7411474
H           0.1240642    -1.8552451    -1.4861188
S           2.2693898    -2.0649872     0.3770176
O           2.0755311    -2.9459686     1.5411464
O           2.4420617    -2.6271610    -0.9730412
C           5.9115054     0.5473082     1.2843503
H           6.7806398     1.1631133     1.4987556
C           5.4118071     0.4807092    -0.0194504
H           5.8939560     1.0381827    -0.8173915
C           4.2992452    -0.3105505    -0.3018093
H           3.9114370    -0.3906487    -1.3122433
C           3.6951029    -1.0231846     0.7367713
C           4.1902912    -0.9758542     2.0406137
H           3.7152475    -1.5683953     2.8154570
C           5.3060253    -0.1811390     2.3102550
H           5.7052908    -0.1377170     3.3195718
25
203_C12H10O2S_0-6-11-20 (-30,) energy =   -1011.8656987
C           0.8496587     0.2077995     1.0836199
H           1.6717900     0.4495374     1.7492538
C          -0.2895976     1.0133935     1.0513056
H          -0.3478259     1.8860727     1.6956192
C          -1.3464517     0.7015508     0.1940238
H          -2.2308625     1.3322290     0.1726412
C           0.9151436    -0.9090393     0.2488770
C          -1.2654258    -0.4145722    -0.6419893
H          -2.0835130    -0.6523066    -1.3159593
C          -0.1290302    -1.2222817    -0.6247638
H          -0.0393036    -2.0770979    -1.2869231
S           2.3318841    -2.0320230     0.2636737
O           2.1370685    -3.0096390     1.3482483
O           2.5306181    -2.4866483    -1.1228375
C           5.9342575     0.5334074     1.4207973
H           6.7956511     1.1368045     1.6937430
C           5.4889672     0.5179502     0.0959889
H           6.0054365     1.1026131    -0.6598899
C           4.3864491    -0.2571710    -0.2615356
H           4.0392654    -0.2991480    -1.2888206
C           3.7390378    -1.0062857     0.7238247
C           4.1796716    -1.0100656     2.0482996
H           3.6720876    -1.6293126     2.7804345
C           5.2849288    -0.2302822     2.3932786
H           5.6424341    -0.2261380     3.4190111
25
203_C12H10O2S_0-6-11-20 (-15,) energy =   -1011.8646125
C           0.9178057     0.3222515     0.8808061
H           1.8098950     0.6571616     1.3987737
C          -0.2398060     1.1039265     0.8982479
H          -0.2385118     2.0504209     1.4314389
C          -1.3885192     0.6741367     0.2337057
H          -2.2860439     1.2861034     0.2503247
C           0.9072410    -0.8911942     0.1926946
C          -1.3843482    -0.5397653    -0.4589996
H          -2.2755723    -0.8719304    -0.9837372
C          -0.2343009    -1.3254912    -0.4886073
H          -0.2140028    -2.2589294    -1.0419227
S           2.3408158    -1.9911261     0.1265358
O           2.1425513    -3.0599005     1.1207027
O           2.5579591    -2.3293082    -1.2901059
C           5.9149817     0.4908460     1.5240956
H           6.7703486     1.0737140     1.8545926
C           5.5238058     0.5300965     0.1829979
H           6.0761513     1.1370173    -0.5286681
C           4.4289252    -0.2187448    -0.2477122
H           4.1218275    -0.2189749    -1.2884393
C           3.7355264    -0.9973529     0.6817451
C           4.1217241    -1.0554983     2.0221175
H           3.5787462    -1.6947924     2.7102833
C           5.2191424    -0.3015315     2.4403124
H           5.5348514    -0.3394921     3.4789595
25
203_C12H10O2S_0-6-11-20 (0,) energy =   -1011.8641050
C           0.9419658     0.4651780     0.6425604
H           1.8874701     0.8692374     0.9868192
C          -0.2233147     1.2310032     0.7341003
H          -0.1738887     2.2325379     1.1520213
C          -1.4409080     0.7142881     0.2925299
H          -2.3438161     1.3139993     0.3659768
C           0.8697992    -0.8196124     0.1047021
C          -1.5009548    -0.5749513    -0.2446676
H          -2.4485047    -0.9792634    -0.5890596
C          -0.3465587    -1.3479916    -0.3412398
H          -0.3855819    -2.3498413    -0.7572235
S           2.3089760    -1.9009557    -0.0640542
O           2.0993507    -3.0574439     0.8233528
O           2.5396159    -2.1077601    -1.5038294
C           5.8745579     0.4449306     1.5680442
H           6.7277904     0.9959701     1.9540017
C           5.5386434     0.5445250     0.2153608
H           6.1310775     1.1660875    -0.4499199
C           4.4464700    -0.1629734    -0.2874346
H           4.1796803    -0.1174740    -1.3381337
C           3.7010325    -0.9610810     0.5829312
C           4.0319003    -1.0791200     1.9344437
H           3.4488667    -1.7313405     2.5762192
C           5.1265234    -0.3666484     2.4249067
H           5.3996664    -0.4512992     3.4728273
25
203_C12H10O2S_0-6-11-20 (15,) energy =   -1011.8646123
C           0.9655677     0.5704113     0.4143736
H           1.9318231     1.0349338     0.5781391
C          -0.2063896     1.3138871     0.5729384
H          -0.1427770     2.3585353     0.8641837
C          -1.4502408     0.7188950     0.3616499
H          -2.3585812     1.3016800     0.4865634
C           0.8738706    -0.7706447     0.0411374
C          -1.5297024    -0.6276874    -0.0041523
H          -2.4979400    -1.0944456    -0.1610429
C          -0.3682384    -1.3811209    -0.1597474
H          -0.4200354    -2.4329929    -0.4219670
S           2.3262429    -1.8167317    -0.2153339
O           2.1106088    -3.0493064     0.5609677
O           2.5861576    -1.8899750    -1.6634564
C           5.8464932     0.4090444     1.6669146
H           6.6886779     0.9305713     2.1134142
C           5.5820822     0.5554189     0.3030211
H           6.2196841     1.1847554    -0.3112228
C           4.5039010    -0.1146852    -0.2768844
H           4.2909158    -0.0341512    -1.3376500
C           3.7003431    -0.9231082     0.5292458
C           3.9597526    -1.0879835     1.8916997
H           3.3337433    -1.7476041     2.4836676
C           5.0401985    -0.4128180     2.4590571
H           5.2576178    -0.5344532     3.5163337
25
203_C12H10O2S_0-6-11-20 (30,) energy =   -1011.8656986
C           0.9438633     0.6455592     0.1867200
H           1.9073456     1.1442600     0.1665096
C          -0.2238807     1.3788636     0.4024888
H          -0.1625039     2.4530436     0.5523831
C          -1.4627241     0.7356325     0.4287732
H          -2.3685739     1.3112799     0.5974714
C           0.8535082    -0.7346239    -0.0012670
C          -1.5389542    -0.6472550     0.2470615
H          -2.5015866    -1.1497286     0.2767994
C          -0.3786107    -1.3918202     0.0389617
H          -0.4181298    -2.4698681    -0.0770716
S           2.3106480    -1.7514229    -0.3348695
O           2.0914637    -3.0442517     0.3352927
O           2.5917119    -1.6987737    -1.7799494
C           5.7888748     0.3393599     1.7689253
H           6.6206232     0.8296613     2.2673028
C           5.5823854     0.5402047     0.4023055
H           6.2539536     1.1801996    -0.1628118
C           4.5175834    -0.0892936    -0.2446839
H           4.3487008     0.0320980    -1.3095162
C           3.6692954    -0.9121383     0.4980208
C           3.8713417    -1.1319600     1.8625889
H           3.2128611    -1.8019968     2.4057790
C           4.9382032    -0.4969947     2.4973109
H           5.1108898    -0.6612242     3.5570959
25
203_C12H10O2S_0-6-11-20 (45,) energy =   -1011.8668177
C           0.8778387     0.6969223    -0.0606344
H           1.8084679     1.2119266    -0.2776004
C          -0.2804082     1.4221031     0.2163860
H          -0.2487973     2.5079464     0.2163089
C          -1.4763408     0.7545764     0.4935370
H          -2.3761392     1.3243759     0.7083471
C           0.8232984    -0.6987250    -0.0531136
C          -1.5166987    -0.6408779     0.5009838
H          -2.4455304    -1.1591008     0.7218331
C          -0.3617202    -1.3772250     0.2335380
H          -0.3657218    -2.4618376     0.2528736
S           2.2823681    -1.6854705    -0.4563514
O           2.0616880    -3.0280076     0.1070488
O           2.5787893    -1.5083141    -1.8880076
C           5.7141625     0.2582812     1.8579064
H           6.5331740     0.7150760     2.4066694
C           5.5626253     0.5155692     0.4938710
H           6.2646388     1.1662109    -0.0197997
C           4.5134625    -0.0701871    -0.2170075
H           4.3865384     0.0959319    -1.2816434
C           3.6252544    -0.9074065     0.4594118
C           3.7730204    -1.1844931     1.8205757
H           3.0850945    -1.8641986     2.3130584
C           4.8237669    -0.5921888     2.5196849
H           4.9531536    -0.8005830     3.5778844
25
203_C12H10O2S_0-6-11-20 (60,) energy =   -1011.8677665
C           0.8082683     0.7083473    -0.3360595
H           1.6680951     1.2124362    -0.7661499
C          -0.3415535     1.4240530    -0.0079118
H          -0.3750223     2.4966409    -0.1765095
C          -1.4488615     0.7628795     0.5320243
H          -2.3434741     1.3254141     0.7844907
C           0.8352114    -0.6706298    -0.1128048
C          -1.4091165    -0.6154209     0.7479276
H          -2.2709286    -1.1277549     1.1660996
C          -0.2596340    -1.3418143     0.4305302
H          -0.2011648    -2.4126221     0.5936833
S           2.3025383    -1.6269400    -0.5508428
O           2.0800245    -3.0021254    -0.0739059
O           2.6198026    -1.3491127    -1.9615508
C           5.6723072     0.1899184     1.9526001
H           6.4748216     0.6184351     2.5466657
C           5.5433662     0.5355624     0.6058902
H           6.2468588     1.2265139     0.1500895
C           4.5150452    -0.0128400    -0.1625060
H           4.4083148     0.2225851    -1.2161848
C           3.6248198    -0.9037511     0.4383199
C           3.7503966    -1.2689182     1.7806943
H           3.0625130    -1.9878841     2.2138544
C           4.7802036    -0.7128009     2.5382511
H           4.8917175    -0.9898057     3.5826684
25
203_C12H10O2S_0-6-11-20 (75,) energy =   -1011.8684798
C           0.6862266     0.6896030    -0.6054264
H           1.4491412     1.1395251    -1.2324678
C          -0.4540149     1.4047086    -0.2428963
H          -0.5749688     2.4310985    -0.5774155
C          -1.4414657     0.7999869     0.5402666
H          -2.3293221     1.3612903     0.8181195
C           0.8237119    -0.6309939    -0.1713489
C          -1.2947697    -0.5230054     0.9612735
H          -2.0674876    -0.9943608     1.5619807
C          -0.1547576    -1.2474127     0.6087000
H          -0.0228345    -2.2799444     0.9139625
S           2.2957783    -1.5679239    -0.6298583
O           2.0635951    -2.9650918    -0.2277030
O           2.6357852    -1.2090382    -2.0167773
C           5.6231179     0.0948251     2.0332185
H           6.4151958     0.4878187     2.6646474
C           5.4859640     0.5564912     0.7223550
H           6.1725190     1.3020401     0.3313770
C           4.4712495     0.0549432    -0.0939464
H           4.3602342     0.3816869    -1.1224374
C           3.6035877    -0.9084505     0.4220407
C           3.7370218    -1.3881571     1.7268622
H           3.0678503    -2.1606106     2.0914344
C           4.7532043    -0.8777372     2.5336639
H           4.8710863    -1.2446403     3.5492939
25
203_C12H10O2S_0-6-11-20 (90,) energy =   -1011.8687519
C           0.5680298     0.6126066    -0.8587028
H           1.2308132     0.9660947    -1.6414661
C          -0.5694659     1.3335778    -0.4953886
H          -0.7916347     2.2749693    -0.9898364
C          -1.4243563     0.8417976     0.4940235
H          -2.3098185     1.4064960     0.7726530
C           0.8342643    -0.5988639    -0.2180773
C          -1.1519141    -0.3774799     1.1190823
H          -1.8259924    -0.7645367     1.8779450
C          -0.0174025    -1.1074133     0.7642439
H           0.1985383    -2.0674261     1.2210556
S           2.3034637    -1.5368260    -0.6819995
O           2.0535996    -2.9439230    -0.3278698
O           2.6650028    -1.1339369    -2.0512218
C           5.5972221    -0.0010241     2.0987760
H           6.3798511     0.3629660     2.7587537
C           5.3895256     0.6133731     0.8614714
H           6.0123599     1.4493290     0.5559990
C           4.3873147     0.1494432     0.0093252
H           4.2267627     0.5979595    -0.9653457
C           3.6009160    -0.9304799     0.4146122
C           3.8052817    -1.5610481     1.6432662
H           3.1999944    -2.4188806     1.9165874
C           4.8104559    -1.0881845     2.4869347
H           4.9837258    -1.5731542     3.4434074
25
203_C12H10O2S_0-6-11-20 (105,) energy =   -1011.8685230
C           0.4357879     0.5365646    -1.0440778
H           1.0044038     0.7844724    -1.9339631
C          -0.7146717     1.2451760    -0.6935218
H          -1.0490266     2.0711535    -1.3148597
C          -1.4364924     0.8887723     0.4471217
H          -2.3313179     1.4432191     0.7162400
C           0.8477594    -0.5247794    -0.2379571
C          -1.0191253    -0.1845839     1.2393463
H          -1.5901228    -0.4686684     2.1187127
C           0.1254481    -0.9025386     0.8964434
H           0.4454267    -1.7544822     1.4874552
S           2.3137731    -1.4644486    -0.7102604
O           2.0475556    -2.8805289    -0.4074694
O           2.6965637    -1.0211128    -2.0610864
C           5.5852375    -0.0723587     2.1694547
H           6.3639258     0.2566504     2.8520695
C           5.3043327     0.6749961     1.0225370
H           5.8665342     1.5799054     0.8102486
C           4.3083728     0.2557738     0.1412537
H           4.0935264     0.8110261    -0.7658715
C           3.5994585    -0.9129041     0.4275320
C           3.8765179    -1.6745673     1.5635576
H           3.3301664    -2.5951586     1.7392666
C           4.8769944    -1.2458985     2.4369140
H           5.1074053    -1.8325468     3.3216777
25
203_C12H10O2S_0-6-11-20 (120,) energy =   -1011.8678900
C           0.2585695     0.4638632    -1.1663802
H           0.7268955     0.6102061    -2.1338084
C          -0.9064972     1.1448890    -0.8078850
H          -1.3607320     1.8399364    -1.5083418
C          -1.4858567     0.9313067     0.4437128
H          -2.3912333     1.4647150     0.7199086
C           0.8287715    -0.4258546    -0.2565940
C          -0.9092319     0.0289542     1.3426841
H          -1.3664712    -0.1420105     2.3130920
C           0.2492080    -0.6619666     0.9927117
H           0.6933369    -1.3773027     1.6777730
S           2.2877040    -1.3609193    -0.7620164
O           2.0085594    -2.7884209    -0.5340177
O           2.6830807    -0.8604950    -2.0891931
C           5.5430710    -0.1472430     2.2131383
H           6.3185862     0.1401109     2.9178183
C           5.2325940     0.6938285     1.1407771
H           5.7684631     1.6294206     1.0085241
C           4.2409563     0.3294636     0.2310743
H           4.0024528     0.9600081    -0.6193686
C           3.5651860    -0.8790564     0.4151401
C           3.8725700    -1.7338547     1.4744057
H           3.3507846    -2.6804238     1.5680242
C           4.8689666    -1.3590094     2.3773125
H           5.1224069    -2.0169560     3.2037257
25
203_C12H10O2S_0-6-11-20 (135,) energy =   -1011.8670464
C           0.1283174     0.3276559    -1.2568997
H           0.5047196     0.3710317    -2.2733812
C          -1.0611970     0.9606509    -0.8926497
H          -1.6320529     1.5037597    -1.6404420
C          -1.5136076     0.8977442     0.4263368
H          -2.4380945     1.3949633     0.7066179
C           0.8528487    -0.3634106    -0.2854684
C          -0.7817122     0.1963930     1.3885881
H          -1.1359038     0.1461930     2.4142824
C           0.4032891    -0.4467351     1.0345590
H           0.9715841    -0.9987804     1.7767450
S           2.3217226    -1.2712525    -0.8151824
O           2.0436879    -2.7110682    -0.6813421
O           2.7387040    -0.6986102    -2.1062770
C           5.5274446    -0.2441158     2.2800709
H           6.2924503    -0.0017875     3.0126137
C           5.2337923     0.6618041     1.2567768
H           5.7723770     1.6027900     1.1902267
C           4.2557907     0.3555272     0.3116276
H           4.0302087     1.0376518    -0.5017577
C           3.5766381    -0.8611269     0.4112310
C           3.8677854    -1.7803162     1.4201769
H           3.3435765    -2.7298769     1.4470728
C           4.8503372    -1.4626775     2.3597132
H           5.0907783    -2.1702300     3.1481348
25
203_C12H10O2S_0-6-11-20 (150,) energy =   -1011.8659680
C           0.0284646     0.1616754    -1.2921013
H           0.3216104     0.0879341    -2.3341546
C          -1.1835314     0.7447546    -0.9230774
H          -1.8549240     1.1200383    -1.6901489
C          -1.5299126     0.8499816     0.4257102
H          -2.4730194     1.3087405     0.7094305
C           0.8864717    -0.3116859    -0.2969553
C          -0.6661387     0.3680567     1.4116213
H          -0.9351950     0.4498760     2.4609071
C           0.5450703    -0.2249354     1.0541437
H           1.2155141    -0.6044814     1.8185506
S           2.3746703    -1.1785552    -0.8433709
O           2.0997259    -2.6254996    -0.8198752
O           2.8209969    -0.5232882    -2.0842924
C           5.5150689    -0.3698811     2.3790036
H           6.2668636    -0.1802296     3.1402116
C           5.2591597     0.5946676     1.4002007
H           5.8138527     1.5285905     1.3968763
C           4.2984833     0.3560441     0.4182854
H           4.1014244     1.0835190    -0.3625569
C           3.5993149    -0.8531756     0.4368800
C           3.8522967    -1.8302449     1.4009912
H           3.3117452    -2.7702478     1.3653689
C           4.8174167    -1.5796433     2.3780677
H           5.0285719    -2.3320525     3.1325763
25
203_C12H10O2S_0-6-11-20 (165,) energy =   -1011.8647495
C          -0.0875038    -0.0103685    -1.2999670
H           0.1210720    -0.2177553    -2.3446671
C          -1.3163440     0.5174832    -0.9093093
H          -2.0801325     0.7109440    -1.6570792
C          -1.5635089     0.8005384     0.4366970
H          -2.5218774     1.2149032     0.7369719
C           0.8916542    -0.2511220    -0.3310811
C          -0.5807570     0.5528631     1.3955085
H          -0.7708649     0.7729103     2.4422100
C           0.6525591     0.0178025     1.0169554
H           1.4137243    -0.1796972     1.7640615
S           2.4137731    -1.0328290    -0.9135925
O           2.1663489    -2.4803714    -1.0284101
O           2.8721074    -0.2648723    -2.0834968
C           5.4906775    -0.4646277     2.4178163
H           6.2290615    -0.3330768     3.2040032
C           5.2888780     0.5497889     1.4778857
H           5.8719358     1.4648329     1.5292702
C           4.3454705     0.3853007     0.4640908
H           4.1890398     1.1514616    -0.2882636
C           3.6099894    -0.8010454     0.4118805
C           3.8088089    -1.8275146     1.3369567
H           3.2410614    -2.7476796     1.2475397
C           4.7562638    -1.6507456     2.3464134
H           4.9258152    -2.4419422     3.0711071
25
203_C12H10O2S_0-6-11-20 (180,) energy =   -1011.8641049
C          -0.1552356    -0.2330576    -1.2654438
H          -0.0133183    -0.6123112    -2.2725654
C          -1.3943958     0.2568630    -0.8604213
H          -2.2258955     0.2591951    -1.5593739
C          -1.5675141     0.7432772     0.4386880
H          -2.5358397     1.1246226     0.7504669
C           0.9102430    -0.2323951    -0.3586382
C          -0.4987305     0.7394047     1.3343755
H          -0.6307112     1.1169241     2.3444422
C           0.7494770     0.2504349     0.9399376
H           1.5788345     0.2485335     1.6384437
S           2.4763726    -0.8873838    -0.9808906
O           2.2758386    -2.3188269    -1.2630465
O           2.9408177     0.0168375    -2.0465495
C           5.4575034    -0.5803524     2.4691962
H           6.1725236    -0.5114359     3.2844511
C           5.3242743     0.4808378     1.5700063
H           5.9375520     1.3703313     1.6821538
C           4.4102469     0.3968854     0.5193090
H           4.3039952     1.1994994    -0.2029865
C           3.6358425    -0.7578785     0.3897618
C           3.7664568    -1.8309300     1.2738376
H           3.1701034    -2.7251734     1.1258641
C           4.6839291    -1.7344117     2.3203894
H           4.8004001    -2.5623582     3.0138163
