27
281_C9H14N2O2_16-10-11-12 (-165,) energy =    -611.3179148
C           2.4240833    -0.1039208    -1.5118207
N           1.2491914    -0.7767084    -1.2608510
C           0.1831357    -0.6819465    -2.2455422
H           0.3613389     0.1862346    -2.8784639
H          -0.7815644    -0.5814795    -1.7333312
H           0.1438018    -1.5779837    -2.8825415
C           1.0737302    -1.8073619    -0.2506378
H           2.0088466    -1.9818138     0.2787680
H           0.7666247    -2.7446577    -0.7365200
H           0.3069533    -1.5268221     0.4806935
C           3.3165412     0.1966981     0.9440594
O           2.1189650     0.2193219     1.5948148
C           2.1325616     0.7773648     2.8998303
H           1.0931937     0.7969733     3.2338679
H           2.5359777     1.7982261     2.8916919
H           2.7221869     0.1641569     3.5950141
C           3.4315958    -0.0281621    -0.4331582
N           4.7883016     0.0759589    -0.7339158
C           5.3937866    -0.0744232    -2.0510572
H           6.4787432    -0.0266941    -1.9308229
H           5.0485424     0.7124621    -2.7219607
H           5.1266221    -1.0404539    -2.4893302
C           5.4845152     0.3295697     0.4057765
H           6.5619831     0.4154145     0.3824942
C           4.6095433     0.4219641     1.4749075
H           4.8788800     0.6231128     2.5011445
O           2.6252544     0.4540956    -2.5979670
27
281_C9H14N2O2_16-10-11-12 (-150,) energy =    -611.3172498
C           2.4105968    -0.0954504    -1.4796128
N           1.2452761    -0.7874537    -1.2397400
C           0.1645399    -0.6593791    -2.2046807
H           0.3282145     0.2352524    -2.8037992
H          -0.7932607    -0.5867342    -1.6751603
H           0.1217365    -1.5288601    -2.8771752
C           1.0894905    -1.8588237    -0.2689483
H           2.0318859    -2.0484772     0.2417899
H           0.7811790    -2.7777104    -0.7879699
H           0.3312147    -1.6120367     0.4829659
C           3.3426398     0.1014658     0.9714052
O           2.1576519     0.0774494     1.6482603
C           2.1059840     0.8639233     2.8311136
H           1.0666440     0.8430058     3.1662179
H           2.4100056     1.8993565     2.6325437
H           2.7433598     0.4476353     3.6228548
C           3.4363698    -0.0586649    -0.4154348
N           4.7870626     0.0623275    -0.7333385
C           5.3718713    -0.0311630    -2.0650057
H           6.4584278     0.0160145    -1.9600472
H           5.0135249     0.7813078    -2.6974957
H           5.1012566    -0.9794417    -2.5384838
C           5.5010717     0.2740437     0.4053917
H           6.5774475     0.3691347     0.3687484
C           4.6427694     0.3156201     1.4899368
H           4.9256210     0.4758656     2.5199578
O           2.5897257     0.5135481    -2.5419747
27
281_C9H14N2O2_16-10-11-12 (-135,) energy =    -611.3164708
C           2.4084601    -0.0897818    -1.4318448
N           1.2520733    -0.8000033    -1.2066085
C           0.1574713    -0.6406644    -2.1512616
H           0.3110416     0.2748338    -2.7207700
H          -0.7930048    -0.5892315    -1.6062676
H           0.1072820    -1.4863420    -2.8528076
C           1.1110564    -1.9046725    -0.2711987
H           2.0588905    -2.1071379     0.2240675
H           0.8013840    -2.8064688    -0.8184807
H           0.3594879    -1.6868569     0.4960959
C           3.3760735     0.0134152     1.0112234
O           2.2045986    -0.0478834     1.7140576
C           2.0511249     0.9357737     2.7317719
H           1.0373967     0.8167772     3.1213258
H           2.1744984     1.9474627     2.3252692
H           2.7660913     0.7887999     3.5518334
C           3.4503143    -0.0914435    -0.3811268
N           4.7953426     0.0370945    -0.7141007
C           5.3612819    -0.0065092    -2.0565353
H           6.4491883     0.0378006    -1.9655634
H           4.9938798     0.8288566    -2.6530627
H           5.0846462    -0.9368430    -2.5612132
C           5.5262775     0.2039934     0.4232141
H           6.6023237     0.2967049     0.3726341
C           4.6842393     0.2027260     1.5198779
H           4.9805427     0.3142727     2.5528691
O           2.5695908     0.5672888    -2.4680111
27
281_C9H14N2O2_16-10-11-12 (-120,) energy =    -611.3160095
C           2.4119166    -0.0630626    -1.3788360
N           1.2631490    -0.7886082    -1.1675161
C           0.1576235    -0.5997391    -2.0942045
H           0.2986754     0.3389676    -2.6280895
H          -0.7874228    -0.5775695    -1.5380829
H           0.1066449    -1.4171415    -2.8283266
C           1.1384005    -1.9289549    -0.2727229
H           2.0925127    -2.1444790     0.2043926
H           0.8269002    -2.8107542    -0.8505094
H           0.3946065    -1.7439262     0.5104443
C           3.4178247    -0.0587188     1.0511569
O           2.2643561    -0.1494810     1.7849725
C           1.9901306     0.9819951     2.6081722
H           1.0406237     0.7758277     3.1080350
H           1.8990920     1.8945505     2.0050398
H           2.7700394     1.1312084     3.3658579
C           3.4710211    -0.1066529    -0.3443230
N           4.8103064     0.0253427    -0.6927307
C           5.3550107     0.0335322    -2.0447191
H           6.4445076     0.0657258    -1.9694465
H           4.9857658     0.8962217    -2.5999146
H           5.0631199    -0.8726561    -2.5835792
C           5.5612678     0.1372731     0.4405855
H           6.6373138     0.2215212     0.3764123
C           4.7351701     0.0962700     1.5474481
H           5.0424976     0.1558242     2.5818683
O           2.5548328     0.6411176    -2.3860439
27
281_C9H14N2O2_16-10-11-12 (-105,) energy =    -611.3157744
C           2.4203269    -0.0452174    -1.3264412
N           1.2744867    -0.7765437    -1.1181480
C           0.1535090    -0.5576401    -2.0196224
H           0.2868145     0.3970590    -2.5264487
H          -0.7819046    -0.5520680    -1.4470561
H           0.0889451    -1.3518094    -2.7776795
C           1.1646168    -1.9465742    -0.2597365
H           2.1272462    -2.1791833     0.1913379
H           0.8401113    -2.8074281    -0.8613119
H           0.4364379    -1.7874602     0.5434556
C           3.4669691    -0.1278984     1.0859137
O           2.3330610    -0.2317229     1.8507428
C           1.9212129     0.9927450     2.4574358
H           1.0188350     0.7660587     3.0307295
H           1.6940957     1.7520128     1.6978347
H           2.6920468     1.3847969     3.1335913
C           3.4966823    -0.1248323    -0.3113044
N           4.8295789     0.0145070    -0.6765625
C           5.3528198     0.0683495    -2.0362345
H           6.4434729     0.0928163    -1.9773262
H           4.9794976     0.9522619    -2.5540396
H           5.0476903    -0.8164917    -2.6024381
C           5.6009015     0.0777510     0.4482204
H           6.6762844     0.1559692     0.3677284
C           4.7922043     0.0009832     1.5657570
H           5.1105858     0.0192050     2.5985395
O           2.5468924     0.6922571    -2.3115775
27
281_C9H14N2O2_16-10-11-12 (-90,) energy =    -611.3155999
C           2.4650504    -0.0565285    -1.2767644
N           1.3095154    -0.7667966    -1.0417008
C           0.1799721    -0.5338154    -1.9297489
H           0.2827424     0.4487306    -2.3884788
H          -0.7513589    -0.5840446    -1.3536151
H           0.1334633    -1.2883165    -2.7287504
C           1.2151879    -1.9644457    -0.2186487
H           2.1803791    -2.1974904     0.2259581
H           0.9007065    -2.8119790    -0.8444443
H           0.4845661    -1.8375508     0.5879962
C           3.5553498    -0.1806618     1.1157469
O           2.4456881    -0.2899464     1.9157083
C           1.8639864     0.9615292     2.2826392
H           1.0132115     0.7299578     2.9284941
H           1.5150884     1.5110966     1.3991060
H           2.5805228     1.5858981     2.8322830
C           3.5587933    -0.1522039    -0.2826226
N           4.8852738    -0.0136962    -0.6698446
C           5.3849175     0.0706470    -2.0371220
H           6.4767176     0.0593868    -1.9980977
H           5.0310645     0.9826601    -2.5188856
H           5.0413388    -0.7839236    -2.6265503
C           5.6783943     0.0181915     0.4412275
H           6.7526199     0.0897871     0.3415380
C           4.8892393    -0.0725605     1.5720465
H           5.2221596    -0.0757791     2.6003098
O           2.5799736     0.6783943    -2.2647501
27
281_C9H14N2O2_16-10-11-12 (-75,) energy =    -611.3153960
C           2.4825815    -0.0334263    -1.2250701
N           1.3143335    -0.7195802    -0.9664845
C           0.1814019    -0.4755567    -1.8482342
H           0.2830701     0.5113987    -2.2976237
H          -0.7471936    -0.5307656    -1.2684656
H           0.1304658    -1.2213291    -2.6552005
C           1.2234117    -1.9351711    -0.1680844
H           2.1870137    -2.1714931     0.2775864
H           0.9157436    -2.7724790    -0.8111048
H           0.4863850    -1.8279594     0.6358519
C           3.6105896    -0.2015742     1.1521753
O           2.5316290    -0.3070580     1.9928918
C           1.7737458     0.8945655     2.1451224
H           1.0028670     0.6788820     2.8893746
H           1.2978413     1.1899651     1.2024230
H           2.4079369     1.7158089     2.5031399
C           3.5875913    -0.1453893    -0.2470745
N           4.9102946    -0.0199976    -0.6562656
C           5.3889398     0.0880920    -2.0296827
H           6.4809074     0.0593076    -2.0077960
H           5.0425174     1.0161929    -2.4852067
H           5.0227165    -0.7468284    -2.6332645
C           5.7238919    -0.0291344     0.4391914
H           6.7970848     0.0275362     0.3208600
C           4.9539400    -0.1291691     1.5827556
H           5.3023080    -0.1571946     2.6053212
O           2.5931948     0.6925497    -2.2194968
27
281_C9H14N2O2_16-10-11-12 (-60,) energy =    -611.3148823
C           2.5253325    -0.0122739    -1.1682145
N           1.3590492    -0.7071041    -0.9148269
C           0.2306650    -0.4753799    -1.8061891
H           0.3291230     0.5100114    -2.2596105
H          -0.7021873    -0.5344515    -1.2337472
H           0.1920186    -1.2257287    -2.6094621
C           1.2701181    -1.9177382    -0.1087519
H           2.2313728    -2.1450683     0.3465640
H           0.9720608    -2.7621642    -0.7465890
H           0.5242436    -1.8095877     0.6877417
C           3.6830701    -0.2192640     1.2030251
O           2.6420499    -0.2898303     2.0911885
C           1.7350868     0.8139971     2.0769328
H           1.0619114     0.6636569     2.9247518
H           1.1518715     0.8477123     1.1502304
H           2.2735089     1.7620803     2.2017738
C           3.6336078    -0.1320940    -0.1954826
N           4.9542766    -0.0466789    -0.6288932
C           5.4112527     0.0704482    -2.0087726
H           6.5024018     0.0145708    -2.0058182
H           5.0811067     1.0137485    -2.4446417
H           5.0148764    -0.7454694    -2.6194690
C           5.7877445    -0.1140682     0.4481945
H           6.8598004    -0.0878064     0.3104888
C           5.0372791    -0.2093002     1.6043452
H           5.4018561    -0.2606582     2.6201478
O           2.6321759     0.7147869    -2.1618613
27
281_C9H14N2O2_16-10-11-12 (-45,) energy =    -611.3138150
C           2.5504249     0.0517563    -1.1237709
N           1.4036114    -0.6846918    -0.8965017
C           0.2715685    -0.4639186    -1.7861876
H           0.3454121     0.5335117    -2.2174389
H          -0.6614626    -0.5604652    -1.2191102
H           0.2560328    -1.1971873    -2.6056856
C           1.3390652    -1.9040306    -0.1021567
H           2.3033197    -2.1117257     0.3570762
H           1.0656399    -2.7508449    -0.7473468
H           0.5844917    -1.8217914     0.6902400
C           3.7412109    -0.2033592     1.2346563
O           2.7411488    -0.2102443     2.1679213
C           1.7194825     0.7775513     2.0352960
H           1.1545001     0.7522701     2.9704406
H           1.0483379     0.5658680     1.1970549
H           2.1587792     1.7740024     1.8998480
C           3.6660779    -0.0805881    -0.1603647
N           4.9818925    -0.0479933    -0.6215934
C           5.4118356     0.0677534    -2.0097070
H           6.5027949     0.0126077    -2.0280271
H           5.0731084     1.0112027    -2.4382324
H           5.0054268    -0.7487759    -2.6142627
C           5.8330249    -0.1833459     0.4344201
H           6.9022280    -0.1985696     0.2746191
C           5.1041342    -0.2696836     1.6039105
H           5.4863622    -0.3489870     2.6112914
O           2.6385553     0.8075260    -2.0972832
27
281_C9H14N2O2_16-10-11-12 (-30,) energy =    -611.3122904
C           2.4918879     0.1565977    -1.0675822
N           1.3704353    -0.6287684    -0.8733189
C           0.2344053    -0.4134845    -1.7591185
H           0.2739588     0.6026268    -2.1491662
H          -0.6969350    -0.5670957    -1.2018282
H           0.2489528    -1.1129348    -2.6078087
C           1.3579185    -1.8931006    -0.1502889
H           2.3004161    -2.0434858     0.3724593
H           1.2055312    -2.7267354    -0.8512407
H           0.5417525    -1.9151780     0.5832486
C           3.7194254    -0.1307533     1.2728202
O           2.7638521    -0.0635036     2.2451334
C           1.6292294     0.7694573     2.0263731
H           1.1736092     0.9179167     3.0085706
H           0.9004051     0.3105818     1.3521374
H           1.9332090     1.7392543     1.6121418
C           3.6199490     0.0036979    -0.1190931
N           4.9277478    -0.0135641    -0.6085968
C           5.3233737     0.0435870    -2.0096144
H           6.4145126     0.0757737    -2.0509066
H           4.9017078     0.9298674    -2.4831745
H           4.9760501    -0.8412525    -2.5550647
C           5.7943730    -0.1958392     0.4276182
H           6.8584841    -0.2554368     0.2454310
C           5.0880913    -0.2587180     1.6108695
H           5.4877813    -0.3465072     2.6106793
O           2.5508089     0.9595762    -2.0041460
27
281_C9H14N2O2_16-10-11-12 (-15,) energy =    -611.3106215
C           2.5141101     0.2054586    -1.0658146
N           1.4127515    -0.6176740    -0.9225822
C           0.2786666    -0.3901146    -1.8075087
H           0.2972197     0.6432105    -2.1512099
H          -0.6532409    -0.5906178    -1.2661914
H           0.3167003    -1.0499646    -2.6866241
C           1.4298007    -1.9145576    -0.2608545
H           2.3581652    -2.0469187     0.2921981
H           1.3415660    -2.7217930    -1.0030037
H           0.5873112    -2.0062153     0.4369535
C           3.7462302    -0.0795792     1.2768598
O           2.8241463     0.0859859     2.2670123
C           1.5930871     0.7318299     1.9723388
H           1.1686324     1.0171837     2.9380809
H           0.8920076     0.0745486     1.4496786
H           1.7575726     1.6310222     1.3647227
C           3.6413993     0.0272627    -0.1164107
N           4.9446045    -0.0522219    -0.6151759
C           5.3207321    -0.0776697    -2.0214522
H           6.4052366     0.0368947    -2.0862164
H           4.8281936     0.7389569    -2.5491177
H           5.0385053    -1.0266700    -2.4941645
C           5.8121343    -0.2474878     0.4184503
H           6.8711730    -0.3568028     0.2297060
C           5.1136696    -0.2558691     1.6065210
H           5.5176189    -0.3282859     2.6058575
O           2.5614841     1.0545780    -1.9608254
27
281_C9H14N2O2_16-10-11-12 (0,) energy =    -611.3089020
C           2.5147210     0.2540075    -1.0440776
N           1.4284514    -0.5938972    -0.9391014
C           0.2972335    -0.3559153    -1.8248838
H           0.2923143     0.6918574    -2.1223405
H          -0.6339379    -0.6036744    -1.3022988
H           0.3600534    -0.9744217    -2.7322033
C           1.4734274    -1.9174696    -0.3343408
H           2.3914505    -2.0403920     0.2385712
H           1.4331001    -2.6955332    -1.1114262
H           0.6162995    -2.0675127     0.3349418
C           3.7688959     0.0083710     1.2991749
O           2.8872112     0.2747019     2.3033591
C           1.5659170     0.6860606     1.9920856
H           1.1316423     1.0226040     2.9364858
H           0.9596774    -0.1308159     1.5883671
H           1.5679794     1.5182748     1.2762976
C           3.6437375     0.0565340    -0.0955890
N           4.9353652    -0.0847600    -0.6106028
C           5.2802537    -0.1802891    -2.0209180
H           6.3653146    -0.0953134    -2.1143152
H           4.7985210     0.6272867    -2.5732268
H           4.9652648    -1.1409622    -2.4477911
C           5.8163478    -0.2568383     0.4163486
H           6.8677454    -0.4093591     0.2155216
C           5.1378294    -0.1937277     1.6132416
H           5.5555614    -0.2344812     2.6087075
O           2.5540726     1.1365356    -1.9055890
27
281_C9H14N2O2_16-10-11-12 (15,) energy =    -611.3072057
C           2.5152633     0.3279598    -1.0160419
N           1.4344391    -0.5295847    -0.9472202
C           0.3084662    -0.2754845    -1.8353016
H           0.2963876     0.7806820    -2.1011797
H          -0.6247137    -0.5471733    -1.3285078
H           0.3848706    -0.8657935    -2.7602117
C           1.4886061    -1.8711585    -0.3853068
H           2.3959372    -1.9961931     0.2043070
H           1.4786989    -2.6250497    -1.1871239
H           0.6192950    -2.0559046     0.2589114
C           3.7909391     0.1350214     1.3240697
O           2.9399596     0.4952750     2.3261950
C           1.5543492     0.6344084     2.0634464
H           1.1118435     0.9913125     2.9963817
H           1.0890934    -0.3179582     1.7870444
H           1.3671192     1.3708386     1.2718419
C           3.6453520     0.1059232    -0.0687740
N           4.9236005    -0.0970560    -0.5942023
C           5.2390541    -0.2789757    -2.0020965
H           6.3220695    -0.2056447    -2.1245827
H           4.7527619     0.5000559    -2.5913166
H           4.9106000    -1.2610578    -2.3660643
C           5.8193558    -0.2274805     0.4270154
H           6.8624899    -0.4210384     0.2188399
C           5.1610141    -0.0804472     1.6271304
H           5.5925948    -0.0776485     2.6174998
O           2.5550683     1.2395640    -1.8452935
27
281_C9H14N2O2_16-10-11-12 (30,) energy =    -611.3058300
C           2.4129061     0.2230598    -1.0813978
N           1.4619372    -0.7462623    -0.8306763
C           0.2965362    -0.7986174    -1.7024863
H           0.1427742     0.1827538    -2.1491410
H          -0.5842363    -1.0888082    -1.1179731
H           0.4327250    -1.5318405    -2.5109082
C           1.7086206    -1.9509850    -0.0532313
H           2.6378617    -1.8521957     0.5067895
H           1.7836162    -2.8271448    -0.7151505
H           0.8869074    -2.1321418     0.6512788
C           3.7511601     0.7006517     1.1818565
O           2.8741294     1.1624068     2.1198847
C           1.5145491     0.7633327     2.0804227
H           1.0413672     1.2394543     2.9424811
H           1.4091888    -0.3245471     2.1705047
H           1.0134915     1.1011671     1.1659280
C           3.5810060     0.3200836    -0.1556068
N           4.8624602     0.1803204    -0.6902072
C           5.1684833    -0.2704815    -2.0382122
H           6.2257206    -0.0784721    -2.2344361
H           4.5614909     0.2818102    -2.7577878
H           4.9790989    -1.3450136    -2.1575912
C           5.7912535     0.4261674     0.2795599
H           6.8463140     0.3319939     0.0632750
C           5.1441017     0.7581575     1.4484552
H           5.5911292     1.0482549     2.3882541
O           2.3143614     0.9800974    -2.0486009
27
281_C9H14N2O2_16-10-11-12 (45,) energy =    -611.3053096
C           2.4466157     0.1876186    -1.1507873
N           1.4508150    -0.7317341    -0.8865583
C           0.3039833    -0.7693576    -1.7838066
H           0.1937667     0.2036693    -2.2605024
H          -0.5986270    -1.0124790    -1.2114843
H           0.4327572    -1.5294222    -2.5682291
C           1.6363324    -1.9184467    -0.0659036
H           2.5683035    -1.8431053     0.4934843
H           1.6729516    -2.8187524    -0.6974285
H           0.8060436    -2.0357085     0.6416389
C           3.7326633     0.7559701     1.1167464
O           2.8171847     1.2394864     2.0093678
C           1.5791181     0.5679103     2.1847144
H           1.0563444     1.1096206     2.9767155
H           1.7315862    -0.4716899     2.5038724
H           0.9679862     0.5830868     1.2760445
C           3.5928418     0.2882829    -0.1974310
N           4.8847568     0.1386403    -0.6989509
C           5.2231622    -0.3577301    -2.0234501
H           6.2932498    -0.2093445    -2.1835981
H           4.6625311     0.1940889    -2.7801363
H           4.9992757    -1.4275073    -2.1197569
C           5.7926583     0.4628932     0.2676261
H           6.8527185     0.3713021     0.0761400
C           5.1181061     0.8538035     1.4031468
H           5.5434293     1.1992527     2.3342745
O           2.4014700     0.9080360    -2.1488562
27
281_C9H14N2O2_16-10-11-12 (60,) energy =    -611.3053345
C           2.4637557     0.1556516    -1.2059303
N           1.4312781    -0.7083458    -0.8941211
C           0.2920144    -0.7422966    -1.8025206
H           0.1625821     0.2416919    -2.2515722
H          -0.6071499    -1.0191917    -1.2414146
H           0.4393835    -1.4743171    -2.6101221
C           1.6081254    -1.9030257    -0.0803038
H           2.5311583    -1.8293502     0.4940145
H           1.6576430    -2.7993975    -0.7169509
H           0.7680013    -2.0264913     0.6136273
C           3.7050266     0.7876277     1.0556483
O           2.7457245     1.2994755     1.8873750
C           1.6547150     0.4741139     2.2726948
H           1.1264359     1.0216842     3.0575008
H           2.0035440    -0.4852763     2.6783319
H           0.9678074     0.2909738     1.4396566
C           3.5987476     0.2753891    -0.2441616
N           4.8989047     0.1067098    -0.7085761
C           5.2681971    -0.4221105    -2.0125752
H           6.3443020    -0.2913954    -2.1450714
H           4.7355858     0.1198977    -2.7960658
H           5.0322332    -1.4904404    -2.0915709
C           5.7842184     0.4633587     0.2689684
H           6.8483221     0.3667076     0.1044291
C           5.0821835     0.8942031     1.3740979
H           5.4867079     1.2735338     2.3014445
O           2.4475508     0.8223326    -2.2409927
27
281_C9H14N2O2_16-10-11-12 (75,) energy =    -611.3055568
C           2.4868788     0.1313944    -1.2579624
N           1.4288848    -0.6895216    -0.9156537
C           0.2895756    -0.7142081    -1.8245013
H           0.1794612     0.2655740    -2.2877371
H          -0.6145928    -0.9643345    -1.2590719
H           0.4215482    -1.4604060    -2.6218981
C           1.5918462    -1.8874950    -0.1025450
H           2.5022759    -1.8146570     0.4918261
H           1.6563858    -2.7827486    -0.7401454
H           0.7372073    -2.0148353     0.5721614
C           3.6779204     0.8055415     1.0013378
O           2.6692458     1.3286589     1.7677045
C           1.7549850     0.4277773     2.3801415
H           1.2293629     1.0013496     3.1485438
H           2.2774209    -0.4137568     2.8549718
H           1.0227826     0.0449749     1.6609315
C           3.6096413     0.2610569    -0.2858818
N           4.9192030     0.0818716    -0.7104005
C           5.3231147    -0.4643916    -1.9972468
H           6.3995454    -0.3195122    -2.1110361
H           4.7974268     0.0563938    -2.7994233
H           5.1042648    -1.5372222    -2.0614361
C           5.7778622     0.4596050     0.2844285
H           6.8461219     0.3584604     0.1524868
C           5.0448721     0.9179077     1.3589717
H           5.4259027     1.3194933     2.2870610
O           2.4955253     0.7603598    -2.3164075
27
281_C9H14N2O2_16-10-11-12 (90,) energy =    -611.3062536
C           2.4419435     0.1298734    -1.3376530
N           1.3612960    -0.6637028    -1.0116194
C           0.2431143    -0.6778643    -1.9458058
H           0.1631850     0.2977639    -2.4238084
H          -0.6784166    -0.9020347    -1.3978148
H           0.3777779    -1.4371746    -2.7303587
C           1.4720201    -1.8442260    -0.1671333
H           2.3735586    -1.7851477     0.4421340
H           1.5211266    -2.7569070    -0.7813772
H           0.6002653    -1.9308412     0.4923274
C           3.5574495     0.8347570     0.9410143
O           2.4931337     1.3187304     1.6578923
C           1.8161983     0.4052078     2.5129445
H           1.2043733     1.0105925     3.1872856
H           2.5239134    -0.1901299     3.1057090
H           1.1602951    -0.2688395     1.9512865
C           3.5370838     0.2627517    -0.3343373
N           4.8606202     0.1020702    -0.7185215
C           5.3129479    -0.4453290    -1.9888806
H           6.3904103    -0.2863675    -2.0694119
H           4.8048592     0.0637087    -2.8096096
H           5.1107371    -1.5212910    -2.0529992
C           5.6823240     0.5084620     0.2964001
H           6.7556591     0.4256696     0.1962992
C           4.9107142     0.9741327     1.3407436
H           5.2608251     1.3982847     2.2712069
O           2.4919056     0.7422999    -2.4051799
27
281_C9H14N2O2_16-10-11-12 (105,) energy =    -611.3093855
C           2.4507630    -0.1035680    -1.4652046
N           1.2437201    -0.6814269    -1.1570889
C           0.2062490    -0.7003436    -2.1768762
H           0.4453455     0.0405548    -2.9382384
H          -0.7624443    -0.4674625    -1.7185338
H           0.1343784    -1.6873344    -2.6565815
C           0.9934939    -1.4989527     0.0125726
H           1.9250129    -1.6578207     0.5540147
H           0.6071089    -2.4793042    -0.2996816
H           0.2591386    -1.0377746     0.6844664
C           3.3308703     0.7793571     0.8620318
O           2.1800959     0.9802861     1.5835370
C           2.0303585     0.1355622     2.7226310
H           1.0138510     0.2918565     3.0926837
H           2.7441636     0.4059124     3.5129730
H           2.1738810    -0.9214339     2.4749316
C           3.4436555     0.1305945    -0.3780117
N           4.7976789     0.1577228    -0.7041060
C           5.4016209    -0.3095855    -1.9459622
H           6.4822653    -0.3687452    -1.7934025
H           5.1697628     0.3676875    -2.7691274
H           5.0254781    -1.3028619    -2.2026113
C           5.4998409     0.7447036     0.3060404
H           6.5769635     0.8215848     0.2492450
C           4.6262746     1.1465017     1.2966236
H           4.8803453     1.6410444     2.2235682
O           2.7056827     0.2655144    -2.6164184
27
281_C9H14N2O2_16-10-11-12 (120,) energy =    -611.3128967
C           2.4571207    -0.0923387    -1.4786490
N           1.2564117    -0.6817529    -1.1632520
C           0.2206387    -0.7265827    -2.1836265
H           0.4652201    -0.0101149    -2.9663235
H          -0.7486478    -0.4758135    -1.7356274
H           0.1454759    -1.7276282    -2.6327750
C           1.0061383    -1.4794763     0.0219654
H           1.9324388    -1.6177114     0.5781252
H           0.6324366    -2.4690864    -0.2762750
H           0.2611476    -1.0117460     0.6769289
C           3.3209629     0.6968999     0.8860221
O           2.1378126     0.8979763     1.5501971
C           2.0236949     0.2081197     2.7918976
H           1.0160605     0.4086899     3.1640646
H           2.7542257     0.5740987     3.5251933
H           2.1625388    -0.8734412     2.6698497
C           3.4461208     0.1443000    -0.3949146
N           4.8045443     0.1741729    -0.7003521
C           5.4230587    -0.2256967    -1.9586094
H           6.5037073    -0.2716869    -1.8020133
H           5.1832015     0.4845524    -2.7509535
H           5.0661281    -1.2121312    -2.2645516
C           5.4962741     0.6739381     0.3621647
H           6.5746682     0.7445209     0.3266148
C           4.6131196     1.0152645     1.3678727
H           4.8647966     1.4464967     2.3263836
O           2.7091193     0.2701656    -2.6332505
27
281_C9H14N2O2_16-10-11-12 (135,) energy =    -611.3149135
C           2.4403418    -0.0825326    -1.5633970
N           1.2532872    -0.6943962    -1.2349947
C           0.2002969    -0.7351845    -2.2375099
H           0.4226720    -0.0032568    -3.0125823
H          -0.7640345    -0.5035026    -1.7688426
H           0.1287944    -1.7295876    -2.7018550
C           1.0290845    -1.5120304    -0.0564362
H           1.9600795    -1.6372705     0.4950658
H           0.6730495    -2.5050293    -0.3651657
H           0.2788506    -1.0665390     0.6078635
C           3.3258367     0.6092912     0.8181766
O           2.1302233     0.8135134     1.4526456
C           2.0612156     0.3283357     2.7887957
H           1.0326500     0.4880559     3.1206114
H           2.7379150     0.8773999     3.4564027
H           2.3040934    -0.7413206     2.8405113
C           3.4426856     0.1362899    -0.4926762
N           4.8010968     0.1594667    -0.7978931
C           5.4091945    -0.2002781    -2.0727639
H           6.4935171    -0.2083440    -1.9377912
H           5.1271802     0.5130610    -2.8478646
H           5.0829460    -1.1951115    -2.3881052
C           5.5009548     0.5760319     0.2940394
H           6.5806171     0.6278495     0.2658867
C           4.6235453     0.8707336     1.3208038
H           4.8885983     1.2392000     2.3012862
O           2.6671420     0.3026347    -2.7162992
27
281_C9H14N2O2_16-10-11-12 (150,) energy =    -611.3162854
C           2.4222144    -0.0880630    -1.5793714
N           1.2410226    -0.7200170    -1.2655117
C           0.1837987    -0.7325632    -2.2640711
H           0.3936199     0.0327390    -3.0099389
H          -0.7808269    -0.5316594    -1.7819403
H           0.1212254    -1.7078810    -2.7686113
C           1.0321415    -1.5881743    -0.1197600
H           1.9664372    -1.7243079     0.4233523
H           0.6857677    -2.5714518    -0.4681956
H           0.2809246    -1.1784897     0.5658778
C           3.3032215     0.5164809     0.8255365
O           2.1017924     0.6869184     1.4523850
C           2.1003206     0.4554424     2.8545855
H           1.0583128     0.5228886     3.1749284
H           2.6852173     1.2143073     3.3910149
H           2.4988661    -0.5387092     3.0968638
C           3.4237040     0.1017307    -0.5050323
N           4.7836117     0.1374764    -0.8056000
C           5.3944361    -0.1753671    -2.0912870
H           6.4791005    -0.1695959    -1.9591424
H           5.0982887     0.5556993    -2.8441696
H           5.0833722    -1.1658827    -2.4350371
C           5.4797754     0.5024624     0.3051440
H           6.5596350     0.5518081     0.2833414
C           4.5999967     0.7510900     1.3435843
H           4.8666435     1.0683863     2.3410076
O           2.6420938     0.3338543    -2.7210766
27
281_C9H14N2O2_16-10-11-12 (165,) energy =    -611.3174204
C           2.4137721    -0.0995756    -1.5539767
N           1.2303143    -0.7393780    -1.2622175
C           0.1760729    -0.7162227    -2.2636566
H           0.3758994     0.0889778    -2.9692422
H          -0.7921587    -0.5543769    -1.7743116
H           0.1283267    -1.6649598    -2.8183381
C           1.0292090    -1.6681146    -0.1628124
H           1.9614938    -1.8158740     0.3801969
H           0.7005431    -2.6381641    -0.5622832
H           0.2682028    -1.3048211     0.5378031
C           3.2886401     0.4088994     0.8754082
O           2.0840317     0.5276317     1.5029928
C           2.1256348     0.5652106     2.9213141
H           1.0868216     0.5636873     3.2577203
H           2.6185271     1.4770016     3.2846496
H           2.6473237    -0.3103263     3.3304258
C           3.4120806     0.0542553    -0.4730131
N           4.7730283     0.1121878    -0.7682332
C           5.3866773    -0.1518880    -2.0634654
H           6.4713174    -0.1256726    -1.9339194
H           5.0713919     0.5927464    -2.7947542
H           5.0963781    -1.1394981    -2.4333203
C           5.4647564     0.4390783     0.3556884
H           6.5441258     0.4987582     0.3380073
C           4.5820472     0.6387221     1.4034684
H           4.8459605     0.9179007     2.4127106
O           2.6324956     0.3626168    -2.6805196
27
281_C9H14N2O2_16-10-11-12 (180,) energy =    -611.3180246
C           2.4009365    -0.1059904    -1.5477104
N           1.2226999    -0.7616023    -1.2680576
C           0.1591032    -0.7079031    -2.2584284
H           0.3427278     0.1292559    -2.9303964
H          -0.8062588    -0.5792472    -1.7538864
H           0.1171688    -1.6323258    -2.8533174
C           1.0432494    -1.7448782    -0.2126097
H           1.9801062    -1.9031285     0.3190998
H           0.7269664    -2.7002000    -0.6554505
H           0.2815768    -1.4265977     0.5086685
C           3.2935399     0.3049712     0.8926090
O           2.0941739     0.3741291     1.5359156
C           2.1489400     0.6815163     2.9197293
H           1.1150350     0.6954609     3.2701733
H           2.6046743     1.6654950     3.0928113
H           2.7134183    -0.0777426     3.4780433
C           3.4080729     0.0120455    -0.4717780
N           4.7657757     0.0957670    -0.7761084
C           5.3701335    -0.1118059    -2.0858374
H           6.4555624    -0.0752491    -1.9657439
H           5.0372467     0.6546167    -2.7861296
H           5.0895728    -1.0892088    -2.4889077
C           5.4636780     0.3903032     0.3523562
H           6.5418615     0.4659479     0.3270929
C           4.5886645     0.5355551     1.4159155
H           4.8597179     0.7794577     2.4322434
O           2.6055674     0.4014334    -2.6575157
