27
281_C9H14N2O2_1-0-16-17 (-165,) energy =    -611.3172314
C           2.6151928    -0.7125427    -1.3586418
N           1.2607698    -0.8082300    -1.1031305
C           0.4876772    -1.6913420    -1.9635785
H           1.1178896    -2.5160834    -2.2943475
H           0.1083360    -1.1684184    -2.8547037
H          -0.3677959    -2.0791784    -1.3989371
C           0.4849341     0.2347596    -0.4466077
H           1.1434396     0.9955638    -0.0324502
H          -0.1241005    -0.1768181     0.3658961
H          -0.1850953     0.7133323    -1.1769621
C           3.3856159     0.0898739     1.0249282
O           2.2896956    -0.2851940     1.7400919
C           2.4147642    -0.2189957     3.1520161
H           1.4687993    -0.5821730     3.5583658
H           2.5849000     0.8113718     3.4926065
H           3.2348720    -0.8551219     3.5099549
C           3.4646227    -0.0163214    -0.3732309
N           4.7595665     0.3823070    -0.7150605
C           5.3267031     0.4432529    -2.0575289
H           6.2939992     0.9474776    -1.9889299
H           4.6734575     1.0111567    -2.7247446
H           5.4461404    -0.5580059    -2.4712200
C           5.4265197     0.7611735     0.4043958
H           6.4361947     1.1423276     0.3388252
C           4.6146968     0.5903338     1.5133493
H           4.8853273     0.8014207     2.5370181
O           3.1168257    -1.2727125    -2.3411580
27
281_C9H14N2O2_1-0-16-17 (-150,) energy =    -611.3180550
C           2.6406825    -0.8513581    -1.3107378
N           1.2717018    -0.7806883    -1.1844897
C           0.4608203    -1.6565621    -2.0153652
H           1.0857961    -2.4652138    -2.3916637
H           0.0344608    -1.1143861    -2.8721790
H          -0.3654986    -2.0661754    -1.4215152
C           0.5465079     0.2703079    -0.4901322
H           1.2388475     1.0237754    -0.1177725
H          -0.0263730    -0.1261706     0.3561910
H          -0.1514999     0.7522653    -1.1893741
C           3.3804232     0.0335917     1.0534822
O           2.3060266    -0.3971840     1.7729331
C           2.4128748    -0.2739295     3.1820931
H           1.4908753    -0.6877814     3.5952138
H           2.5083805     0.7768909     3.4881150
H           3.2717367    -0.8387455     3.5680825
C           3.4721532    -0.1138634    -0.3355694
N           4.7221566     0.3835434    -0.6992867
C           5.2709378     0.4298763    -2.0484267
H           6.2332791     0.9453516    -2.0038083
H           4.6031888     0.9807911    -2.7175272
H           5.3958580    -0.5785283    -2.4433623
C           5.3628305     0.8463087     0.4066762
H           6.3402054     1.3011886     0.3250190
C           4.5690704     0.6430607     1.5230659
H           4.8244006     0.9021126     2.5397343
O           3.1696658    -1.5329255    -2.1978896
27
281_C9H14N2O2_1-0-16-17 (-135,) energy =    -611.3169633
C           2.6795463    -1.0227827    -1.2189697
N           1.3248854    -0.7853173    -1.2243858
C           0.4693483    -1.6457070    -2.0263400
H           1.0808964    -2.4340001    -2.4627771
H          -0.0102430    -1.0740881    -2.8329706
H          -0.3194357    -2.0864440    -1.4022696
C           0.6502866     0.2831147    -0.5079495
H           1.3765948     1.0066264    -0.1402404
H           0.0754120    -0.0994139     0.3446294
H          -0.0397300     0.7939578    -1.1926525
C           3.4316469    -0.0567181     1.1077932
O           2.3841561    -0.5218136     1.8479069
C           2.4828874    -0.3294176     3.2496446
H           1.5859710    -0.7760358     3.6834496
H           2.5185895     0.7379145     3.5082200
H           3.3723821    -0.8264559     3.6590471
C           3.5205872    -0.2529991    -0.2709009
N           4.7204482     0.3206197    -0.6769895
C           5.2279343     0.3552316    -2.0414048
H           6.2309496     0.7871470    -2.0226531
H           4.5878525     0.9741499    -2.6801972
H           5.2578465    -0.6546525    -2.4515849
C           5.3480631     0.8629561     0.4026610
H           6.2924543     1.3764147     0.2881065
C           4.5854999     0.6455660     1.5378243
H           4.8381338     0.9545760     2.5412588
O           3.1987513    -1.8263411    -2.0028728
27
281_C9H14N2O2_1-0-16-17 (-120,) energy =    -611.3143616
C           2.6827959    -1.1307513    -1.1450571
N           1.3668971    -0.7608874    -1.2967420
C           0.4959183    -1.5987984    -2.1079190
H           1.0992461    -2.3808618    -2.5663760
H           0.0148420    -0.9990904    -2.8913582
H          -0.2912896    -2.0534975    -1.4906084
C           0.7110302     0.3164256    -0.5742257
H           1.4518302     1.0139401    -0.1852192
H           0.1125159    -0.0619411     0.2649061
H           0.0459274     0.8536933    -1.2616551
C           3.4422606    -0.1045591     1.1539681
O           2.4242335    -0.6079782     1.9128375
C           2.5196426    -0.3733116     3.3078338
H           1.6503669    -0.8553701     3.7598018
H           2.4995326     0.7010173     3.5383779
H           3.4365953    -0.8108298     3.7249374
C           3.5280129    -0.3323510    -0.2154683
N           4.6649432     0.3266869    -0.6626400
C           5.1433746     0.3388805    -2.0366305
H           6.1376490     0.7903017    -2.0534407
H           4.4772590     0.9264132    -2.6792333
H           5.1902199    -0.6818685    -2.4199984
C           5.2759510     0.9365931     0.3934648
H           6.1838745     1.5053208     0.2496786
C           4.5506227     0.6906539     1.5464893
H           4.7971207     1.0403289     2.5381694
O           3.1864268    -2.0334253    -1.8212939
27
281_C9H14N2O2_1-0-16-17 (-105,) energy =    -611.3109011
C           2.6456817    -1.2242033    -1.0395661
N           1.3949062    -0.7419539    -1.3500597
C           0.5191483    -1.5593677    -2.1776420
H           1.1038168    -2.3780454    -2.5945178
H           0.0968614    -0.9526391    -2.9882889
H          -0.3111232    -1.9688056    -1.5850487
C           0.7669688     0.4040962    -0.7126840
H           1.5188038     1.0200656    -0.2212476
H           0.0266847     0.0900245     0.0362492
H           0.2532222     1.0065216    -1.4722885
C           3.4465940    -0.1525678     1.2230373
O           2.4704526    -0.6927511     2.0125262
C           2.5983418    -0.4497868     3.4029255
H           1.7675690    -0.9708844     3.8832616
H           2.5343396     0.6232209     3.6328058
H           3.5476756    -0.8416836     3.7924496
C           3.5026827    -0.3899371    -0.1421608
N           4.5719677     0.3390454    -0.6390238
C           5.0042578     0.3390625    -2.0268121
H           5.9649529     0.8537537    -2.0943594
H           4.2795167     0.8579459    -2.6651477
H           5.1130785    -0.6884483    -2.3824074
C           5.1868322     0.9941470     0.3908786
H           6.0567784     1.6097229     0.2104015
C           4.5179629     0.7152115     1.5693212
H           4.7756003     1.0902013     2.5489668
O           3.1015439    -2.2410790    -1.5656880
27
281_C9H14N2O2_1-0-16-17 (-90,) energy =    -611.3082409
C           2.3887989    -1.2096924    -0.7583203
N           1.2699066    -0.5762243    -1.2523953
C           0.3584853    -1.3278190    -2.1026325
H           0.8429289    -2.2602723    -2.3890015
H           0.1121766    -0.7433891    -2.9979684
H          -0.5763916    -1.5543503    -1.5710001
C           0.7852103     0.7161884    -0.7969159
H           1.5297335     1.1928466    -0.1602019
H          -0.1460959     0.6035213    -0.2238745
H           0.5778583     1.3670863    -1.6566168
C           3.3419828    -0.2495317     1.4895376
O           2.4067993    -0.8137599     2.3096599
C           2.6328191    -0.6592738     3.6995195
H           1.8228266    -1.1912781     4.2028830
H           2.6108220     0.3987580     3.9973053
H           3.5955881    -1.0942381     4.0009489
C           3.2994546    -0.3959779     0.1129114
N           4.3535320     0.3368654    -0.4103982
C           4.7297017     0.3565254    -1.8129799
H           5.5952617     1.0109272    -1.9348257
H           3.9093605     0.7390374    -2.4297397
H           4.9860922    -0.6503204    -2.1584010
C           5.0544863     0.9119982     0.6147661
H           5.9320199     1.5102855     0.4141784
C           4.4526568     0.5790471     1.8139293
H           4.7763141     0.8948468     2.7948946
O           2.6820547    -2.3603187    -1.0750507
27
281_C9H14N2O2_1-0-16-17 (-75,) energy =    -611.3077396
C           2.3220015    -1.2776499    -0.6414828
N           1.3421553    -0.6235719    -1.3618652
C           0.4579647    -1.4123003    -2.2069552
H           0.9126329    -2.3884596    -2.3708626
H           0.3049073    -0.9019675    -3.1657258
H          -0.5226382    -1.5534949    -1.7303164
C           0.9289206     0.7499683    -1.1255869
H           1.6076245     1.2302164    -0.4211791
H          -0.0873184     0.7805529    -0.7068080
H           0.9240822     1.3195533    -2.0646833
C           3.3263280    -0.3475062     1.5757548
O           2.4432145    -0.9704866     2.4067354
C           2.7158524    -0.8609256     3.7924843
H           1.9443893    -1.4412618     4.3026769
H           2.6673921     0.1834415     4.1324599
H           3.7038047    -1.2717054     4.0417413
C           3.2259969    -0.4260422     0.1952058
N           4.2455968     0.3571111    -0.3339646
C           4.6324380     0.3876660    -1.7336896
H           5.3104655     1.2294019    -1.8934515
H           3.7514645     0.5204256    -2.3673849
H           5.1372131    -0.5399822    -2.0281373
C           4.9721607     0.8995475     0.6912808
H           5.8297905     1.5248739     0.4863067
C           4.4234651     0.5005139     1.8949944
H           4.7647656     0.7959259     2.8763028
O           2.4712744    -2.4943832    -0.7025104
27
281_C9H14N2O2_1-0-16-17 (-60,) energy =    -611.3082479
C           2.2435520    -1.2459226    -0.5655252
N           1.3996501    -0.5822267    -1.4430373
C           0.5017972    -1.3887657    -2.2571959
H           0.9373016    -2.3786545    -2.3885293
H           0.3587858    -0.9076416    -3.2317985
H          -0.4818593    -1.5031281    -1.7783887
C           1.0207096     0.8151301    -1.2971755
H           1.6908437     1.3182736    -0.6006319
H          -0.0067145     0.9011088    -0.9129981
H           1.0616431     1.3294982    -2.2663349
C           3.3521998    -0.3684240     1.6055953
O           2.5244228    -1.0292231     2.4586679
C           2.8283087    -0.9085374     3.8372317
H           2.0896189    -1.5140154     4.3660762
H           2.7538704     0.1340822     4.1775034
H           3.8350266    -1.2866446     4.0617949
C           3.1898288    -0.4107984     0.2261379
N           4.1669620     0.4185125    -0.3232714
C           4.5411347     0.4614068    -1.7275697
H           5.1662273     1.3416132    -1.8970651
H           3.6509615     0.5323544    -2.3558076
H           5.1015572    -0.4354503    -2.0178297
C           4.9224903     0.9469888     0.6868739
H           5.7640053     1.5882980     0.4644113
C           4.4373581     0.5015654     1.9014148
H           4.8122860     0.7809919     2.8750029
O           2.2315182    -2.4686571    -0.4615368
27
281_C9H14N2O2_1-0-16-17 (-45,) energy =    -611.3084852
C           1.8089322    -1.1022443     0.2939241
N           1.4523686    -1.2372755    -1.0466832
C           1.3675449    -0.0983691    -1.9536573
H           1.9899568     0.7215148    -1.5966173
H           0.3308228     0.2631075    -2.0330823
H           1.7022586    -0.3851854    -2.9585306
C           0.5553971    -2.3386968    -1.3731307
H           0.7716111    -3.1829028    -0.7191693
H           0.7059713    -2.6269850    -2.4194745
H          -0.4998953    -2.0598354    -1.2351670
C           2.6928831     0.8751130     1.6901144
O           1.6280585     0.9272206     2.5299357
C           1.6811184     1.9160693     3.5438840
H           0.7667562     1.8000579     4.1288068
H           1.7149821     2.9291608     3.1189245
H           2.5511797     1.7735546     4.1991643
C           2.7775987    -0.0342294     0.6387177
N           3.9591999     0.2549761    -0.0512869
C           4.6327124    -0.6401190    -0.9821026
H           5.1879645    -1.4217951    -0.4494052
H           5.3315857    -0.0576243    -1.5885669
H           3.9022942    -1.1177519    -1.6355418
C           4.5949121     1.2910423     0.5748376
H           5.5625953     1.6278203     0.2289993
C           3.8344212     1.7213207     1.6441782
H           4.0664387     2.5516202     2.2946815
O           1.3660683    -1.8608278     1.1509254
27
281_C9H14N2O2_1-0-16-17 (-30,) energy =    -611.3077501
C           1.7212151    -1.0245961     0.2830471
N           1.4979247    -1.2522064    -1.0818814
C           1.4407465    -0.1423652    -2.0313131
H           2.0784072     0.6778151    -1.7026564
H           0.4124097     0.2384025    -2.1327065
H           1.7765545    -0.4748247    -3.0210866
C           0.5711709    -2.3358213    -1.3920639
H           0.7459162    -3.1679727    -0.7104726
H           0.7386741    -2.6593774    -2.4251567
H          -0.4786690    -2.0242107    -1.2861949
C           2.6772463     0.8604854     1.7334368
O           1.6400190     0.8864803     2.6035382
C           1.6876440     1.8885140     3.6056583
H           0.7869799     1.7563557     4.2078922
H           1.6896620     2.8968775     3.1688399
H           2.5722280     1.7736812     4.2466817
C           2.7443475    -0.0292452     0.6589277
N           3.8993549     0.3030985    -0.0639713
C           4.6001101    -0.5862284    -0.9846223
H           5.2410260    -1.2904320    -0.4402609
H           5.2207222     0.0149070    -1.6553164
H           3.8786675    -1.1546765    -1.5701143
C           4.5369249     1.3307789     0.5725603
H           5.4944662     1.6839603     0.2143380
C           3.8045370     1.7239960     1.6744646
H           4.0445726     2.5416091     2.3378911
O           1.1286408    -1.6772600     1.1371108
27
281_C9H14N2O2_1-0-16-17 (-15,) energy =    -611.3056683
C           1.6491434    -0.9393960     0.2661504
N           1.5344068    -1.2732605    -1.0985408
C           1.5082325    -0.2053368    -2.1008304
H           2.1597779     0.6168202    -1.8051072
H           0.4893426     0.1924163    -2.2317650
H           1.8470881    -0.5919035    -3.0693085
C           0.5749723    -2.3378995    -1.3818404
H           0.7046884    -3.1465109    -0.6624025
H           0.7585928    -2.7118071    -2.3948608
H          -0.4664142    -1.9895921    -1.3160226
C           2.6867674     0.8434179     1.7667674
O           1.6754572     0.8516211     2.6630907
C           1.7265169     1.8594202     3.6604033
H           0.8371512     1.7178908     4.2769179
H           1.7089409     2.8653063     3.2188950
H           2.6223514     1.7581041     4.2878168
C           2.7338276    -0.0314071     0.6736442
N           3.8652738     0.3350581    -0.0769320
C           4.5852978    -0.5519961    -0.9894861
H           5.2830115    -1.1950810    -0.4395979
H           5.1478062     0.0536812    -1.7061910
H           3.8762051    -1.1837576    -1.5214997
C           4.5098336     1.3522117     0.5681206
H           5.4598349     1.7149355     0.1988418
C           3.8062209     1.7156490     1.6978071
H           4.0594771     2.5192846     2.3732219
O           0.9263756    -1.4713446     1.1035729
27
281_C9H14N2O2_1-0-16-17 (0,) energy =    -611.3020454
C           1.5823768    -0.0025503    -0.4987779
N           1.5964699    -0.9773228    -1.5282765
C           0.3829170    -0.9908841    -2.3439924
H           0.1314270     0.0272146    -2.6426997
H          -0.4807213    -1.4099421    -1.8071762
H           0.5743147    -1.5978811    -3.2354454
C           2.0407108    -2.3328470    -1.1823178
H           2.8660811    -2.2979251    -0.4707773
H           2.3749066    -2.8595975    -2.0838760
H           1.2233782    -2.9171345    -0.7301220
C           2.9317449     0.9203153     1.4455780
O           1.8739253     1.4718833     2.0761320
C           2.1038607     1.9555210     3.3906500
H           1.1464375     2.3479375     3.7374261
H           2.8501164     2.7613473     3.3969270
H           2.4353228     1.1527752     4.0631839
C           2.8475153     0.3211489     0.1773327
N           4.1200974    -0.2323651    -0.0743979
C           4.6709465    -0.4710640    -1.4108362
H           5.4064822    -1.2797896    -1.3596467
H           5.1587447     0.4321574    -1.7961982
H           3.8667360    -0.7477613    -2.0894397
C           4.9502164     0.0816592     0.9629545
H           6.0026889    -0.1639548     0.9092621
C           4.2571179     0.7729717     1.9340454
H           4.6531997     1.1088726     2.8807878
O           0.5696478     0.6553584    -0.2816276
27
281_C9H14N2O2_1-0-16-17 (15,) energy =    -611.3056716
C           1.6607501     0.0939703    -0.6946052
N           1.5967466    -0.9767415    -1.6094857
C           0.3979204    -0.9881137    -2.4444790
H           0.1985867     0.0193737    -2.8096820
H          -0.4904561    -1.3312722    -1.8938456
H           0.5696659    -1.6611326    -3.2914073
C           1.9985657    -2.3177817    -1.1775658
H           2.8255718    -2.2629131    -0.4698296
H           2.3149617    -2.9117046    -2.0432657
H           1.1628500    -2.8452064    -0.6910673
C           3.0186582     0.8720817     1.3196181
O           1.9670113     1.4128427     1.9741459
C           2.2130450     1.8626181     3.2970962
H           1.2631542     2.2569244     3.6622256
H           2.9678896     2.6602624     3.3159011
H           2.5421401     1.0409768     3.9479946
C           2.9179329     0.3091802     0.0408283
N           4.1801498    -0.2383471    -0.2501682
C           4.6936602    -0.4860065    -1.5966907
H           5.4676811    -1.2577961    -1.5483468
H           5.1254205     0.4270482    -2.0239275
H           3.8825289    -0.8215479    -2.2404355
C           5.0269860     0.0337515     0.7865459
H           6.0755179    -0.2227477     0.7141032
C           4.3484007     0.6964046     1.7884206
H           4.7567329     0.9953362     2.7423729
O           0.7276481     0.8841830    -0.5894963
27
281_C9H14N2O2_1-0-16-17 (30,) energy =    -611.3077495
C           1.6986748     0.1895316    -0.7580471
N           1.5557164    -0.9500139    -1.5618288
C           0.3786671    -0.9625796    -2.4241337
H           0.2257999     0.0318741    -2.8429104
H          -0.5325919    -1.2439311    -1.8755704
H           0.5397848    -1.6853810    -3.2313405
C           1.9328914    -2.2720870    -1.0657147
H           2.7611918    -2.1967713    -0.3616924
H           2.2376726    -2.9147797    -1.9005228
H           1.0878726    -2.7592034    -0.5542573
C           3.0351363     0.8528170     1.3266792
O           1.9745344     1.3564826     2.0008947
C           2.2250479     1.7959350     3.3255814
H           1.2710042     2.1640159     3.7072347
H           2.9618608     2.6103699     3.3459301
H           2.5806267     0.9745473     3.9631153
C           2.9338597     0.3218296     0.0387116
N           4.2016262    -0.1814706    -0.2875367
C           4.6846463    -0.4291274    -1.6420600
H           5.5419662    -1.1064236    -1.5932397
H           4.9946146     0.5050026    -2.1261827
H           3.8960779    -0.8843236    -2.2398814
C           5.0562271     0.0730497     0.7480950
H           6.1068961    -0.1684151     0.6602834
C           4.3728107     0.6882009     1.7775851
H           4.7845248     0.9653862     2.7366994
O           0.8515142     1.0777958    -0.7655993
27
281_C9H14N2O2_1-0-16-17 (45,) energy =    -611.3084853
C           1.7565137     0.2407533    -0.8450194
N           1.5149701    -0.9499392    -1.5280503
C           0.3654851    -0.9637964    -2.4240228
H           0.2484822     0.0223732    -2.8722231
H          -0.5645688    -1.2102058    -1.8904320
H           0.5281321    -1.7139421    -3.2059734
C           1.8711988    -2.2537512    -0.9802525
H           2.6727384    -2.1548147    -0.2489253
H           2.2038422    -2.9260289    -1.7811549
H           1.0060601    -2.7204432    -0.4847617
C           3.0490274     0.8020246     1.3125729
O           1.9697539     1.2625883     1.9944032
C           2.2152061     1.7273636     3.3106320
H           1.2537355     2.0740352     3.6940976
H           2.9296273     2.5618027     3.3155499
H           2.5970464     0.9251969     3.9577945
C           2.9619965     0.3019606     0.0156714
N           4.2398610    -0.1492762    -0.3298452
C           4.7026645    -0.4138070    -1.6852121
H           5.6041355    -1.0306044    -1.6360500
H           4.9364097     0.5185077    -2.2136554
H           3.9335730    -0.9462757    -2.2452291
C           5.0914912     0.0932609     0.7120063
H           6.1457770    -0.1289287     0.6195513
C           4.3913693     0.6598471     1.7588169
H           4.7956862     0.9191162     2.7261259
O           1.0197700     1.2130678    -0.9786413
27
281_C9H14N2O2_1-0-16-17 (60,) energy =    -611.3082478
C           1.8163351     0.2798324    -0.8936186
N           1.4755033    -0.9443965    -1.4484089
C           0.3636012    -0.9743677    -2.3877076
H           0.2681794     0.0057560    -2.8535918
H          -0.5838886    -1.2119399    -1.8820014
H           0.5495040    -1.7382715    -3.1516879
C           1.8185308    -2.2254717    -0.8495247
H           2.5932418    -2.0949203    -0.0944170
H           2.1802828    -2.9248975    -1.6146763
H           0.9383878    -2.6777129    -0.3684703
C           3.0415289     0.7733940     1.3353294
O           1.9334062     1.1730185     2.0150098
C           2.1502535     1.6480105     3.3320945
H           1.1715638     1.9457993     3.7134486
H           2.8225598     2.5168047     3.3407585
H           2.5694502     0.8650984     3.9799400
C           2.9859846     0.3031459     0.0288642
N           4.2829051    -0.0676024    -0.3245898
C           4.7370911    -0.3537933    -1.6757786
H           5.7241164    -0.8198045    -1.6224732
H           4.8068934     0.5622217    -2.2747086
H           4.0472301    -1.0400476    -2.1710342
C           5.1200071     0.1806650     0.7280837
H           6.1819584    -0.0016733     0.6390540
C           4.3870928     0.6829042     1.7861320
H           4.7745307     0.9378448     2.7615403
O           1.1996727     1.3048390    -1.1677084
27
281_C9H14N2O2_1-0-16-17 (75,) energy =    -611.3077396
C           1.8784310     0.3070586    -0.9803837
N           1.4071729    -0.9294015    -1.3747285
C           0.3236834    -0.9840331    -2.3448657
H           0.2419469    -0.0119440    -2.8294160
H          -0.6324670    -1.2188802    -1.8558304
H           0.5289011    -1.7611654    -3.0913892
C           1.7061708    -2.1778294    -0.6926395
H           2.4687189    -2.0162046     0.0688369
H           2.0648769    -2.9325114    -1.4055604
H           0.8047274    -2.5757244    -0.2048107
C           3.0250467     0.7318462     1.3207449
O           1.8854074     1.0651877     1.9907631
C           2.0641743     1.5579958     3.3068030
H           1.0687871     1.8146840     3.6750169
H           2.6982699     2.4550135     3.3176278
H           2.5087484     0.7985436     3.9657848
C           3.0120511     0.3164258    -0.0018040
N           4.3238416     0.0121988    -0.3476110
C           4.7884892    -0.2588095    -1.6968281
H           5.8046099    -0.6571040    -1.6458973
H           4.7906756     0.6513659    -2.3080461
H           4.1441994    -0.9994249    -2.1782328
C           5.1367623     0.2461290     0.7285113
H           6.2041179     0.0915732     0.6547450
C           4.3668147     0.6775174     1.7915433
H           4.7275295     0.9089203     2.7830415
O           1.4171181     1.3525595    -1.4283604
27
281_C9H14N2O2_1-0-16-17 (90,) energy =    -611.3082414
C           1.9788756     0.2719550    -1.0885080
N           1.3549478    -0.9429133    -1.2690500
C           0.2646881    -1.0335869    -2.2291242
H           0.2545979    -0.1235348    -2.8273434
H          -0.7014306    -1.1396878    -1.7159465
H           0.4073150    -1.9067736    -2.8779754
C           1.5242472    -2.0941939    -0.3980194
H           2.3570214    -1.9289973     0.2847031
H           1.7224216    -2.9939820    -0.9952766
H           0.6153915    -2.2728366     0.1940574
C           3.0893673     0.6423919     1.2589761
O           1.9331536     0.8984328     1.9394368
C           2.0891002     1.3154144     3.2842460
H           1.0838740     1.5125329     3.6625906
H           2.6897873     2.2326366     3.3535487
H           2.5597246     0.5338351     3.8976512
C           3.0952536     0.3185668    -0.0876340
N           4.4120708     0.0715735    -0.4444036
C           4.8662793    -0.1802860    -1.8006549
H           5.9417388    -0.3684947    -1.7811698
H           4.6611563     0.6807698    -2.4453576
H           4.3628544    -1.0577958    -2.2198285
C           5.2167899     0.2595661     0.6466159
H           6.2875590     0.1340384     0.5693903
C           4.4316752     0.6059188     1.7304258
H           4.7851531     0.8054776     2.7314231
O           1.6994747     1.2575335    -1.7672090
27
281_C9H14N2O2_1-0-16-17 (105,) energy =    -611.3109011
C           2.2135778     0.3130845    -1.3722575
N           1.3865549    -0.7860510    -1.4087539
C           0.2898523    -0.8007404    -2.3663814
H           0.4298573     0.0238175    -3.0637767
H          -0.6775017    -0.6873916    -1.8569315
H           0.2820742    -1.7526515    -2.9117174
C           1.3520608    -1.8310134    -0.3983826
H           2.2685559    -1.8160429     0.1898350
H           1.2588652    -2.8081254    -0.8887064
H           0.4974497    -1.7035642     0.2805553
C           3.2586464     0.5273073     1.0301257
O           2.0853295     0.7370474     1.6989138
C           2.2077311     1.0306234     3.0800064
H           1.1939505     1.1999210     3.4488382
H           2.8107730     1.9336323     3.2457343
H           2.6590711     0.1940938     3.6320894
C           3.2967426     0.3264889    -0.3415429
N           4.6206351     0.0982594    -0.6833800
C           5.1034378    -0.1200019    -2.0369235
H           6.1950498    -0.0934215    -2.0279175
H           4.7231353     0.6624821    -2.6981048
H           4.7766574    -1.0940966    -2.4194414
C           5.3956192     0.1809282     0.4393408
H           6.4664546     0.0463430     0.3800997
C           4.5870673     0.4473345     1.5298346
H           4.9185972     0.5694815     2.5505552
O           2.1531880     1.2030828    -2.2224960
27
281_C9H14N2O2_1-0-16-17 (120,) energy =    -611.3143616
C           2.2996287     0.2222533    -1.4468536
N           1.3488114    -0.7677311    -1.3615493
C           0.2450128    -0.7583179    -2.3103627
H           0.4222537     0.0326948    -3.0374770
H          -0.7090033    -0.5796190    -1.7951545
H           0.1807905    -1.7246455    -2.8270332
C           1.2498505    -1.7438476    -0.2890763
H           2.2045180    -1.8325093     0.2280182
H           0.9877249    -2.7191507    -0.7176223
H           0.4799955    -1.4669541     0.4431642
C           3.2836423     0.4646145     0.9797438
O           2.0943197     0.6144901     1.6345274
C           2.1841846     0.9004592     3.0202878
H           1.1582651     1.0104822     3.3776115
H           2.7347833     1.8334065     3.2009818
H           2.6741699     0.0843893     3.5695439
C           3.3525747     0.2691678    -0.3956289
N           4.6972189     0.1464497    -0.7177720
C           5.2250382    -0.0551348    -2.0585425
H           6.3109716     0.0552493    -2.0237634
H           4.7962923     0.6829661    -2.7386001
H           4.9831525    -1.0581261    -2.4291408
C           5.4447309     0.2723379     0.4162704
H           6.5227979     0.2056052     0.3742038
C           4.6051715     0.4762936     1.4977486
H           4.9137049     0.6172613     2.5231262
O           2.3481270     0.9958679    -2.4085866
27
281_C9H14N2O2_1-0-16-17 (135,) energy =    -611.3169633
C           2.3554128     0.1095238    -1.4835765
N           1.2948390    -0.7459226    -1.2967224
C           0.1926396    -0.7076529    -2.2449044
H           0.3719898     0.0995951    -2.9534652
H          -0.7564033    -0.5395102    -1.7186606
H           0.1179204    -1.6572532    -2.7927098
C           1.1756977    -1.7257998    -0.2311029
H           2.1320591    -1.8491830     0.2752083
H           0.8790264    -2.6908676    -0.6630045
H           0.4231258    -1.4299399     0.5103819
C           3.3014646     0.4060808     0.9515487
O           2.1067478     0.5044866     1.6029224
C           2.1783431     0.8288315     2.9818002
H           1.1471476     0.8907781     3.3352305
H           2.6765053     1.7946979     3.1392668
H           2.7113221     0.0544294     3.5506308
C           3.3892848     0.1835493    -0.4232259
N           4.7436890     0.1738805    -0.7380773
C           5.3069066    -0.0286582    -2.0655317
H           6.3881522     0.1129116    -2.0038170
H           4.8707603     0.6841390    -2.7660325
H           5.1026894    -1.0433680    -2.4253628
C           5.4708103     0.3704092     0.3960923
H           6.5512881     0.3756992     0.3617119
C           4.6141937     0.5274370     1.4726144
H           4.9072561     0.7082575     2.4961412
O           2.4742501     0.7763986    -2.5184435
27
281_C9H14N2O2_1-0-16-17 (150,) energy =    -611.3180542
C           2.4204422    -0.0399199    -1.4998006
N           1.2550115    -0.7227441    -1.2340016
C           0.1867641    -0.6632541    -2.2191261
H           0.3596405     0.1867013    -2.8777552
H          -0.7779975    -0.5527548    -1.7090444
H           0.1519416    -1.5781602    -2.8288528
C           1.0869089    -1.7195596    -0.1895285
H           2.0278611    -1.8796356     0.3344953
H           0.7729225    -2.6706142    -0.6427148
H           0.3283358    -1.4144128     0.5406538
C           3.3170733     0.3316809     0.9456286
O           2.1186761     0.3837805     1.5925683
C           2.1663439     0.7686260     2.9571443
H           1.1317628     0.7854585     3.3055244
H           2.6076368     1.7671455     3.0749098
H           2.7403487     0.0500911     3.5581416
C           3.4293190     0.0684872    -0.4246764
N           4.7863750     0.1556664    -0.7294333
C           5.3876743    -0.0286869    -2.0440179
H           6.4732472     0.0120460    -1.9269414
H           5.0481747     0.7465871    -2.7312999
H           5.1111056    -1.0014358    -2.4610412
C           5.4861355     0.4303104     0.4030713
H           6.5640664     0.5090821     0.3768561
C           4.6128316     0.5557026     1.4705528
H           4.8851539     0.7814210     2.4907683
O           2.6152268     0.4944898    -2.5988607
27
281_C9H14N2O2_1-0-16-17 (165,) energy =    -611.3172314
C           2.4709929    -0.1843189    -1.4821028
N           1.2284623    -0.6883562    -1.1500958
C           0.1934235    -0.6146223    -2.1708427
H           0.3544074     0.2700476    -2.7858976
H          -0.7850038    -0.5546536    -1.6810237
H           0.2005809    -1.4972828    -2.8282486
C           1.0141881    -1.7135082    -0.1378596
H           1.9285158    -1.8888952     0.4254860
H           0.7171168    -2.6557780    -0.6226580
H           0.2254049    -1.4194669     0.5633453
C           3.3477450     0.2761198     0.9551786
O           2.1571245     0.2681259     1.6153301
C           2.1888156     0.7136427     2.9621781
H           1.1581422     0.6736945     3.3199448
H           2.5607573     1.7442017     3.0326823
H           2.8156232     0.0623980     3.5863598
C           3.4727718    -0.0310987    -0.4094345
N           4.8188595     0.1701525    -0.7256239
C           5.4451892    -0.0178237    -2.0293990
H           6.5273177     0.0552343    -1.8938822
H           5.0972384     0.7349335    -2.7367965
H           5.2007391    -1.0030362    -2.4340764
C           5.4969103     0.5331348     0.3925771
H           6.5652316     0.6958069     0.3576692
C           4.6222760     0.6190014     1.4628609
H           4.8808643     0.8967232     2.4736533
O           2.7086969     0.2118507    -2.6298333
27
281_C9H14N2O2_1-0-16-17 (180,) energy =    -611.3143224
C           2.4883018    -0.3317969    -1.4854248
N           1.1833122    -0.6314400    -1.1160512
C           0.1900504    -0.5357873    -2.1784567
H           0.3973209     0.3372968    -2.7968811
H          -0.7996336    -0.4364998    -1.7196274
H           0.1882347    -1.4233005    -2.8294080
C           0.8782660    -1.6562070    -0.1211346
H           1.7452225    -1.8563711     0.5039475
H           0.5848139    -2.5918998    -0.6226229
H           0.0545842    -1.3363295     0.5261889
C           3.3680856     0.2209252     0.9352250
O           2.1974524     0.1563224     1.6248678
C           2.2285109     0.6448516     2.9570596
H           1.2110223     0.5457472     3.3400120
H           2.5301448     1.6999346     2.9875983
H           2.9120482     0.0571820     3.5844480
C           3.4912102    -0.1244320    -0.4245519
N           4.8155593     0.1791443    -0.7693626
C           5.4552745    -0.0146846    -2.0674685
H           6.5301204     0.1323711    -1.9315570
H           5.0651818     0.6893624    -2.8021696
H           5.2734538    -1.0253578    -2.4385270
C           5.4804199     0.6201521     0.3262227
H           6.5325538     0.8624616     0.2679661
C           4.6205834     0.6687747     1.4102561
H           4.8738292     0.9944356     2.4078869
O           2.7650276    -0.1011310    -2.6684720
