16
295_C7H7FO_3-0-4-11 (-165,) energy =    -446.0016608
C           1.1489632    -0.6535233    -0.0831316
H           0.6275979     0.3073239     0.0314374
H           1.3830779    -1.0892431     0.8980344
F           0.3397303    -1.5093048    -0.7683185
O           2.3107767    -0.5063177    -0.8515015
C           5.7881610     1.1349285     0.7552017
H           6.7074384     1.5558207     1.1515042
C           4.6013507     1.2329820     1.4770918
H           4.5885936     1.7354562     2.4406239
C           3.4104555     0.6968525     0.9760220
H           2.4947961     0.8030214     1.5482352
C           3.4198167     0.0471270    -0.2634939
C           4.6090337    -0.0515332    -0.9974255
H           4.5863662    -0.5583250    -1.9569213
C           5.7830874     0.4914643    -0.4873649
H           6.7016582     0.4089494    -1.0621084
16
295_C7H7FO_3-0-4-11 (-150,) energy =    -446.0013811
C           1.1492944    -0.6619544    -0.1046759
H           0.4722897     0.1993044    -0.0282482
H           1.4578018    -1.0088139     0.8899791
F           0.4855318    -1.6714698    -0.7418087
O           2.2645801    -0.3494142    -0.8915029
C           5.8043654     1.0861104     0.7755712
H           6.7381728     1.4566492     1.1879375
C           4.6157432     1.2295517     1.4879978
H           4.6166786     1.7190552     2.4582477
C           3.4067955     0.7607988     0.9645094
H           2.4863088     0.9106158     1.5198031
C           3.3998104     0.1279592    -0.2833075
C           4.5890887    -0.0142280    -1.0081246
H           4.5525421    -0.5056265    -1.9751206
C           5.7824208     0.4658220    -0.4780693
H           6.7022854     0.3493141    -1.0447919
16
295_C7H7FO_3-0-4-11 (-135,) energy =    -446.0013658
C           1.1533458    -0.6813375    -0.1133515
H           0.3432034     0.0578667    -0.1125869
H           1.4795228    -0.9142564     0.9069889
F           0.6742570    -1.8258816    -0.6957521
O           2.2205045    -0.2230827    -0.8918711
C           5.8201193     1.0464006     0.7856398
H           6.7677148     1.3759136     1.2014826
C           4.6379483     1.2274408     1.5014428
H           4.6582725     1.7066714     2.4765792
C           3.4126194     0.8125237     0.9721084
H           2.4956909     0.9952459     1.5239638
C           3.3817414     0.1926822    -0.2813232
C           4.5626640     0.0142882    -1.0097461
H           4.5074803    -0.4646354    -1.9820630
C           5.7742223     0.4438363    -0.4753897
H           6.6889315     0.2995919    -1.0440557
16
295_C7H7FO_3-0-4-11 (-120,) energy =    -446.0023830
C           1.2792133    -0.8336320    -0.2065018
H           0.9151491    -1.2940076    -1.1320191
H           1.2155812     0.2584204    -0.2550799
F           0.4766461    -1.2868831     0.8144715
O           2.5923062    -1.2590739     0.0051091
C           5.6649813     1.5346003     0.3965632
H           6.4767933     2.2492434     0.4963607
C           4.4872908     1.7043240     1.1268612
H           4.3823890     2.5471497     1.8047397
C           3.4427286     0.7860499     1.0093734
H           2.5405575     0.8921212     1.6050013
C           3.5793706    -0.2983635     0.1377279
C           4.7549671    -0.4819562    -0.5914379
H           4.8346659    -1.3395712    -1.2519346
C           5.7967597     0.4353954    -0.4552812
H           6.7119876     0.2928048    -1.0234975
16
295_C7H7FO_3-0-4-11 (-105,) energy =    -446.0051531
C           1.2804554    -0.8039571    -0.1953900
H           0.8030250    -1.3887634    -0.9877205
H           1.2354622     0.2700569    -0.4035577
F           0.5868641    -1.0594017     0.9706687
O           2.5947388    -1.2492178    -0.0868580
C           5.6635154     1.5267295     0.4262175
H           6.4735816     2.2387569     0.5547183
C           4.4726950     1.6832733     1.1375313
H           4.3550260     2.5129244     1.8294107
C           3.4300894     0.7679337     0.9831044
H           2.5166559     0.8573876     1.5636214
C           3.5840087    -0.2977076     0.0919433
C           4.7728017    -0.4704779    -0.6178726
H           4.8642425    -1.3143477    -1.2943763
C           5.8112057     0.4438773    -0.4443604
H           6.7368487     0.3122544    -0.9981453
16
295_C7H7FO_3-0-4-11 (-90,) energy =    -446.0077227
C           1.2765541    -0.7973501    -0.1695943
H           0.7093696    -1.4721753    -0.8159807
H           1.1904697     0.2463335    -0.4917924
F           0.7436901    -0.8992531     1.1046531
O           2.5942710    -1.2318975    -0.1970824
C           5.6654555     1.5122135     0.4588877
H           6.4768897     2.2158700     0.6205292
C           4.4583158     1.6638785     1.1419482
H           4.3283530     2.4823147     1.8449287
C           3.4120707     0.7596796     0.9469673
H           2.4878168     0.8463073     1.5083468
C           3.5818850    -0.2908547     0.0410415
C           4.7875355    -0.4590002    -0.6424185
H           4.8893017    -1.2903136    -1.3328987
C           5.8272377     0.4439133    -0.4275889
H           6.7652318     0.3152641    -0.9609321
16
295_C7H7FO_3-0-4-11 (-75,) energy =    -446.0085498
C           1.2651364    -0.8084431    -0.1485664
H           0.6619891    -1.5565131    -0.6676315
H           1.0697123     0.2056271    -0.5189826
F           0.9154905    -0.8319749     1.1929136
O           2.5879613    -1.1708133    -0.3449032
C           5.6867698     1.4935442     0.4982854
H           6.5074501     2.1752958     0.7016629
C           4.4596258     1.6599287     1.1388708
H           4.3219729     2.4694375     1.8507577
C           3.3974281     0.7858211     0.8925509
H           2.4610480     0.8931606     1.4263206
C           3.5755457    -0.2551595    -0.0229390
C           4.8028985    -0.4361832    -0.6668333
H           4.9089463    -1.2567655    -1.3694395
C           5.8547515     0.4368639    -0.4013989
H           6.8071700     0.2945891    -0.9049440
16
295_C7H7FO_3-0-4-11 (-60,) energy =    -446.0071428
C           1.2377325    -0.8439917    -0.1249251
H           0.6507870    -1.6532277    -0.5641800
H           0.8731017     0.1419872    -0.4440265
F           1.1049085    -0.8951861     1.2512720
O           2.5454177    -1.0519245    -0.5369997
C           5.6998399     1.4561510     0.5481033
H           6.5373631     2.0972340     0.8072559
C           4.4479722     1.6658663     1.1236279
H           4.3061154     2.4714133     1.8392590
C           3.3614048     0.8456550     0.8060541
H           2.4065289     0.9979350     1.2922209
C           3.5427245    -0.1926166    -0.1125850
C           4.7953688    -0.4139870    -0.6945275
H           4.9033170    -1.2282967    -1.4041074
C           5.8681262     0.4072977    -0.3606045
H           6.8385639     0.2289678    -0.8159715
16
295_C7H7FO_3-0-4-11 (-45,) energy =    -446.0042507
C           1.2469205    -0.8859396    -0.1084514
H           0.7325362    -1.7723381    -0.4869276
H           0.7056770     0.0335935    -0.3732122
F           1.2891204    -0.9395840     1.2693892
O           2.5126567    -0.9025045    -0.6867280
C           5.7303194     1.4251890     0.5947516
H           6.5843001     2.0216147     0.9022914
C           4.4648500     1.6842986     1.1190880
H           4.3279786     2.4857693     1.8402918
C           3.3567558     0.9237344     0.7368582
H           2.3873667     1.1249614     1.1743987
C           3.5302174    -0.1122537    -0.1864400
C           4.7954043    -0.3805972    -0.7190302
H           4.8977250    -1.1890765    -1.4360228
C           5.8888018     0.3865279    -0.3266779
H           6.8687384     0.1706278    -0.7439238
16
295_C7H7FO_3-0-4-11 (-30,) energy =    -446.0009812
C           1.2569320    -0.9367950    -0.1135639
H           0.8619206    -1.9013115    -0.4445760
H           0.5558959    -0.1231295    -0.3479349
F           1.4074574    -0.9548868     1.2536352
O           2.4645281    -0.7547910    -0.7943791
C           5.7487676     1.3872949     0.6309393
H           6.6185955     1.9394083     0.9747805
C           4.4798100     1.6973787     1.1201931
H           4.3569966     2.4955693     1.8475671
C           3.3521587     0.9965058     0.6877692
H           2.3748568     1.2437606     1.0837098
C           3.5074871    -0.0363671    -0.2427751
C           4.7748347    -0.3542059    -0.7398562
H           4.8628264    -1.1577201    -1.4642182
C           5.8893017     0.3585265    -0.3035120
H           6.8712053     0.1048394    -0.6941027
16
295_C7H7FO_3-0-4-11 (-15,) energy =    -445.9983109
C           1.2543114    -0.9641596    -0.1008390
H           1.0048322    -1.9961501    -0.3687996
H           0.4328611    -0.2836256    -0.3622630
F           1.4312746    -0.8937358     1.2591093
O           2.4032354    -0.6193764    -0.8296255
C           5.7651080     1.3544857     0.6562718
H           6.6532074     1.8672572     1.0142785
C           4.5044143     1.7101903     1.1378035
H           4.4071279     2.5052025     1.8725003
C           3.3548871     1.0621678     0.6832559
H           2.3810814     1.3478497     1.0623978
C           3.4775986     0.0332504    -0.2569004
C           4.7355800    -0.3302176    -0.7451677
H           4.7999933    -1.1279275    -1.4784111
C           5.8735888     0.3338317    -0.2905543
H           6.8485015     0.0468227    -0.6756011
16
295_C7H7FO_3-0-4-11 (0,) energy =    -445.9971050
C           1.2104155    -0.8313204    -0.2804034
H           0.6674845    -1.4167078     0.4715628
H           0.8594361    -1.0741342    -1.2905724
F           0.9569185     0.4984915    -0.0554899
O           2.5751334    -1.1619652    -0.2051317
C           5.7081983     1.4727315     0.6022778
H           6.5434061     2.1353340     0.8103552
C           4.5577676     1.5226217     1.3916459
H           4.4955994     2.2240939     2.2195163
C           3.4803932     0.6727369     1.1393682
H           2.5933323     0.7106719     1.7600471
C           3.5548004    -0.2262536     0.0698430
C           4.7018232    -0.2831015    -0.7258652
H           4.7349548    -0.9955419    -1.5441616
C           5.7769385     0.5622339    -0.4538189
H           6.6676057     0.5110103    -1.0744641
16
295_C7H7FO_3-0-4-11 (15,) energy =    -445.9983109
C           1.1977985    -0.8179899    -0.2625657
H           0.7572914    -1.3145232     0.6124488
H           0.7427360    -1.1850123    -1.1884301
F           0.9390580     0.5257428    -0.1485065
O           2.5675328    -1.1162217    -0.3350410
C           5.7047344     1.4561465     0.6373289
H           6.5416817     2.1030965     0.8838640
C           4.5315367     1.5056349     1.3916418
H           4.4527688     2.1912818     2.2312710
C           3.4497925     0.6774000     1.0887380
H           2.5444685     0.7224945     1.6820250
C           3.5452648    -0.2009705     0.0038704
C           4.7158258    -0.2578404    -0.7573461
H           4.7632263    -0.9532636    -1.5893585
C           5.7923831     0.5670784    -0.4359044
H           6.7000692     0.5165961    -1.0314462
16
295_C7H7FO_3-0-4-11 (30,) energy =    -446.0009812
C           1.1996664    -0.8177981    -0.2101095
H           0.9041307    -1.2414713     0.7602211
H           0.6488829    -1.2905636    -1.0280650
F           0.8922129     0.5223788    -0.1729732
O           2.5540428    -1.0610934    -0.4590536
C           5.7061665     1.4279143     0.6704194
H           6.5471323     2.0546442     0.9526585
C           4.5131653     1.4838294     1.3912558
H           4.4215233     2.1554363     2.2408457
C           3.4237335     0.6840598     1.0403110
H           2.5015325     0.7455984     1.6049284
C           3.5358606    -0.1758452    -0.0573579
C           4.7270801    -0.2401692    -0.7859600
H           4.7860922    -0.9201226    -1.6299492
C           5.8070795     0.5594611    -0.4189896
H           6.7296711     0.5043985    -0.9906593
16
295_C7H7FO_3-0-4-11 (45,) energy =    -446.0042508
C           1.2077769    -0.8221647    -0.1685430
H           1.0965461    -1.2206653     0.8499947
H           0.5922133    -1.3760429    -0.8811798
F           0.7867510     0.4909382    -0.1298428
O           2.5197368    -0.9532511    -0.6139965
C           5.7128878     1.3857804     0.7071797
H           6.5640552     1.9752985     1.0351655
C           4.4948610     1.4729199     1.3797225
H           4.3923223     2.1337572     2.2364488
C           3.3889615     0.7245090     0.9682647
H           2.4449826     0.8245274     1.4884411
C           3.5158723    -0.1222907    -0.1374837
C           4.7334524    -0.2175353    -0.8192477
H           4.8014864    -0.8859142    -1.6718041
C           5.8250177     0.5358518    -0.3964490
H           6.7669880     0.4572697    -0.9326426
16
295_C7H7FO_3-0-4-11 (60,) energy =    -446.0071428
C           1.2356342    -0.8401162    -0.1349848
H           1.3195082    -1.2310345     0.8882741
H           0.6009307    -1.4730254    -0.7586345
F           0.6573309     0.4129017    -0.0400324
O           2.4732865    -0.8041531    -0.7599649
C           5.7229419     1.3365796     0.7478223
H           6.5872757     1.8769594     1.1226113
C           4.4830584     1.4740232     1.3692422
H           4.3756296     2.1277196     2.2308231
C           3.3591021     0.7909031     0.8957233
H           2.3956319     0.9399569     1.3656513
C           3.4951007    -0.0485778    -0.2140229
C           4.7342021    -0.1922578    -0.8471529
H           4.8068668    -0.8517348    -1.7062491
C           5.8409511     0.5017260    -0.3671967
H           6.8002350     0.3860117    -0.8645279
16
295_C7H7FO_3-0-4-11 (75,) energy =    -446.0085500
C           1.2665341    -0.8580381    -0.1178432
H           1.5239858    -1.2385948     0.8785058
H           0.6634916    -1.5709554    -0.6843962
F           0.5141047     0.2924092     0.0612928
O           2.4016046    -0.6203760    -0.8757945
C           5.7247584     1.2823385     0.7820479
H           6.6042479     1.7663064     1.1966671
C           4.4720082     1.4864341     1.3588773
H           4.3693386     2.1375285     2.2229181
C           3.3310175     0.8758283     0.8311646
H           2.3542061     1.0738078     1.2553051
C           3.4637591     0.0386930    -0.2801552
C           4.7131792    -0.1690285    -0.8713663
H           4.7815912    -0.8222885    -1.7355684
C           5.8381400     0.4561032    -0.3398781
H           6.8083649     0.2913907    -0.8007304
16
295_C7H7FO_3-0-4-11 (90,) energy =    -446.0077227
C           1.2950241    -0.8659469    -0.1089167
H           1.6452743    -1.1663918     0.8848416
H           0.7862643    -1.6832350    -0.6267065
F           0.3768405     0.1585411     0.0504167
O           2.3480039    -0.4720315    -0.9225664
C           5.7355601     1.2409358     0.8045789
H           6.6277443     1.6818126     1.2396921
C           4.4829236     1.4934125     1.3648589
H           4.3943795     2.1392955     2.2342856
C           3.3292302     0.9376972     0.8077166
H           2.3486457     1.1663659     1.2115265
C           3.4467772     0.1062623    -0.3094471
C           4.6930874    -0.1475884    -0.8849917
H           4.7484406    -0.7913180    -1.7572016
C           5.8341243     0.4246787    -0.3255915
H           6.8049388     0.2257212    -0.7714288
16
295_C7H7FO_3-0-4-11 (105,) energy =    -446.0051531
C           1.3048085    -0.8892654    -0.1183339
H           1.6646057    -1.0676685     0.9002834
H           0.9511952    -1.8120254    -0.5886501
F           0.2299962    -0.0244691    -0.0642182
O           2.3075955    -0.3683304    -0.9309980
C           5.7488105     1.2098850     0.8165144
H           6.6529862     1.6193092     1.2575830
C           4.5032013     1.4945769     1.3785971
H           4.4326466     2.1343569     2.2541356
C           3.3362833     0.9780045     0.8127583
H           2.3601041     1.2283741     1.2174214
C           3.4301890     0.1548133    -0.3128482
C           4.6684682    -0.1296310    -0.8896227
H           4.7062055    -0.7639568    -1.7695899
C           5.8251840     0.4035466    -0.3220254
H           6.7906135     0.1811255    -0.7684462
16
295_C7H7FO_3-0-4-11 (120,) energy =    -446.0023830
C           1.2980591    -0.9010717    -0.1469918
H           1.5954083    -0.9344137     0.9063168
H           1.1273040    -1.9084679    -0.5433073
F           0.1110841    -0.2151089    -0.2587198
O           2.2727898    -0.2826373    -0.9327599
C           5.7621088     1.1826217     0.8213352
H           6.6778918     1.5656079     1.2622158
C           4.5262286     1.4899496     1.3933893
H           4.4756909     2.1211170     2.2765383
C           3.3447631     1.0075081     0.8281192
H           2.3789511     1.2763570     1.2462860
C           3.4111083     0.1964821    -0.3086412
C           4.6404501    -0.1108901    -0.8931557
H           4.6582625    -0.7343897    -1.7814360
C           5.8131465     0.3882343    -0.3265323
H           6.7704971     0.1484345    -0.7813069
16
295_C7H7FO_3-0-4-11 (135,) energy =    -446.0013657
C           1.1421008    -0.6364711    -0.1317561
H           1.0870134     0.4097484     0.1909348
H           0.7549314    -1.3115947     0.6409373
F           0.3673418    -0.7946332    -1.2513317
O           2.4517886    -0.9924769    -0.4676780
C           5.7429563     1.3151429     0.6395559
H           6.6133531     1.9044320     0.9126696
C           4.6234345     1.2894656     1.4694319
H           4.6196308     1.8535356     2.3982881
C           3.5007427     0.5291394     1.1299112
H           2.6513439     0.4877892     1.8048223
C           3.4999594    -0.1962003    -0.0659565
C           4.6224810    -0.1821560    -0.9006586
H           4.5952987    -0.7591599    -1.8194270
C           5.7383151     0.5697120    -0.5435280
H           6.6062038     0.5797494    -1.1974009
16
295_C7H7FO_3-0-4-11 (150,) energy =    -446.0013812
C           1.1451230    -0.6397967    -0.1108505
H           1.0318051     0.4294359     0.1102254
H           0.9081068    -1.2506487     0.7704364
F           0.2805678    -0.9812391    -1.1119399
O           2.4356561    -0.9182123    -0.5765984
C           5.7485529     1.2830460     0.6689554
H           6.6257630     1.8454747     0.9748325
C           4.6080916     1.2682139     1.4689470
H           4.5929064     1.8154894     2.4076932
C           3.4752947     0.5430861     1.0863498
H           2.6083529     0.5174240     1.7389354
C           3.4881855    -0.1619341    -0.1221305
C           4.6325120    -0.1570029    -0.9286381
H           4.6154166    -0.7159221    -1.8588160
C           5.7548669     0.5616366    -0.5295469
H           6.6386871     0.5634476    -1.1617647
16
295_C7H7FO_3-0-4-11 (165,) energy =    -446.0016609
C           1.1502347    -0.6396863    -0.0891259
H           0.9326851     0.4248207     0.0744271
H           1.0862521    -1.2002085     0.8541727
F           0.2380759    -1.1513845    -0.9624248
O           2.4064858    -0.8042501    -0.6866358
C           5.7619695     1.2418164     0.7002504
H           6.6503555     1.7658375     1.0400232
C           4.6011554     1.2525248     1.4694488
H           4.5799087     1.7834898     2.4174330
C           3.4515726     0.5790988     1.0431923
H           2.5657728     0.5861114     1.6696129
C           3.4715497    -0.1055247    -0.1772944
C           4.6370498    -0.1246619    -0.9543496
H           4.6250802    -0.6658965    -1.8950370
C           5.7727436     0.5456674    -0.5135002
H           6.6720432     0.5274772    -1.1232905
16
295_C7H7FO_3-0-4-11 (180,) energy =    -446.0018141
C           1.1510412    -0.6420940    -0.0842209
H           0.7906511     0.3879135     0.0495401
H           1.2514053    -1.1476008     0.8868837
F           0.2577968    -1.3275653    -0.8497326
O           2.3636121    -0.6605097    -0.7851179
C           5.7761468     1.1899783     0.7308545
H           6.6795458     1.6639096     1.1030450
C           4.5982273     1.2410321     1.4715276
H           4.5771366     1.7566319     2.4279600
C           3.4279318     0.6343465     1.0027842
H           2.5241417     0.6895660     1.6000820
C           3.4475613    -0.0315705    -0.2281909
C           4.6293656    -0.0869783    -0.9790644
H           4.6156944    -0.6100252    -1.9299870
C           5.7832759     0.5212892    -0.4984268
H           6.6951999     0.4732707    -1.0874719
