16
295_C7H7FO_0-4-11-9 (-165,) energy =    -446.0058621
C           1.4971565    -1.1057646    -0.6442654
H           2.0607666    -1.4271595    -1.5295477
H           0.4240720    -1.0849574    -0.8479544
F           1.7449922    -2.0153856     0.3621913
O           1.8310712     0.1848357    -0.2582806
C           5.7334695     1.2629908     0.7612826
H           6.7394261     1.5704571     1.0315188
C           4.6381469     2.0698051     1.0813344
H           4.7867122     3.0100049     1.6055715
C           3.3476016     1.6735191     0.7407707
H           2.4830768     2.2835706     0.9827420
C           3.1483281     0.4700428     0.0586234
C           4.2315139    -0.3587164    -0.2450384
H           4.0868330    -1.3216880    -0.7209441
C           5.5206635     0.0518938     0.1043408
H           6.3618574    -0.5934456    -0.1343103
16
295_C7H7FO_0-4-11-9 (-150,) energy =    -446.0044494
C           1.4919939    -1.1182334    -0.5906408
H           2.1169382    -1.6499665    -1.3182537
H           0.4530267    -1.0793694    -0.9271075
F           1.5555136    -1.8108228     0.5991574
O           1.8783817     0.2052461    -0.4240710
C           5.7339946     1.2549363     0.7944608
H           6.7279418     1.5540047     1.1141693
C           4.6218371     2.0322991     1.1264926
H           4.7446899     2.9413343     1.7090721
C           3.3458355     1.6442070     0.7238554
H           2.4674731     2.2292153     0.9772447
C           3.1800066     0.4798722    -0.0290914
C           4.2826927    -0.3096648    -0.3627530
H           4.1673648    -1.2247417    -0.9335151
C           5.5555958     0.0866441     0.0537585
H           6.4121540    -0.5294907    -0.2063696
16
295_C7H7FO_0-4-11-9 (-135,) energy =    -446.0042997
C           1.4791763    -1.1200256    -0.5100140
H           2.2200573    -1.8341985    -0.8859505
H           0.5657478    -1.1470253    -1.1093534
F           1.1718568    -1.4879883     0.7842818
O           1.9274791     0.1929857    -0.5572441
C           5.7349621     1.2406170     0.8059077
H           6.7191591     1.5369612     1.1569725
C           4.6051235     1.9730825     1.1764213
H           4.7055729     2.8434614     1.8191480
C           3.3401861     1.5906507     0.7317402
H           2.4476483     2.1403422     1.0126850
C           3.2071759     0.4723070    -0.0914064
C           4.3309130    -0.2584444    -0.4835802
H           4.2347724    -1.1091591    -1.1508889
C           5.5913606     0.1276919    -0.0238282
H           6.4653873    -0.4421278    -0.3276646
16
295_C7H7FO_0-4-11-9 (-120,) energy =    -446.0046713
C           1.4888109    -1.1321561    -0.3656084
H           2.2481495    -1.9104941    -0.5068578
H           0.6339014    -1.2807811    -1.0300944
F           1.0518485    -1.2152422     0.9416475
O           1.9811607     0.1366004    -0.6429836
C           5.7371390     1.2298012     0.8171417
H           6.7116216     1.5326464     1.1894129
C           4.5887890     1.9181992     1.2146149
H           4.6663238     2.7580765     1.8996655
C           3.3350835     1.5299633     0.7416451
H           2.4281041     2.0447827     1.0414528
C           3.2381085     0.4510925    -0.1356991
C           4.3796415    -0.2355290    -0.5538308
H           4.2944055    -1.0522049    -1.2648702
C           5.6281745     0.1545659    -0.0668043
H           6.5184830    -0.3777635    -0.3905571
16
295_C7H7FO_0-4-11-9 (-105,) energy =    -446.0050197
C           1.4707972    -1.1026849    -0.3148223
H           2.2054908    -1.9154765    -0.2563089
H           0.6571200    -1.3417486    -1.0042716
F           0.9405145    -0.9333700     0.9500322
O           2.0427918     0.0760410    -0.7765359
C           5.7234321     1.2114028     0.8325262
H           6.6810881     1.5214218     1.2410534
C           4.5480118     1.8432637     1.2451635
H           4.5886899     2.6445387     1.9779722
C           3.3153042     1.4482913     0.7240123
H           2.3878995     1.9195034     1.0323891
C           3.2704554     0.4199061    -0.2157672
C           4.4377959    -0.2133389    -0.6442014
H           4.3801599    -0.9948054    -1.3965358
C           5.6653192     0.1839682    -0.1113956
H           6.5776199    -0.3043818    -0.4431041
16
295_C7H7FO_0-4-11-9 (-90,) energy =    -446.0055438
C           1.4365295    -1.0545210    -0.2621544
H           2.1146390    -1.8754260     0.0028907
H           0.6618762    -1.3771870    -0.9623179
F           0.8235889    -0.6322769     0.9045759
O           2.1143147    -0.0104620    -0.8780564
C           5.7185423     1.2103689     0.8356867
H           6.6584695     1.5407845     1.2687875
C           4.5138020     1.7710804     1.2669776
H           4.5147092     2.5369674     2.0377949
C           3.3034355     1.3529730     0.7127723
H           2.3550193     1.7716051     1.0317012
C           3.3118385     0.3688396    -0.2754219
C           4.5075848    -0.1954681    -0.7193004
H           4.4833040    -0.9455630    -1.5043578
C           5.7131412     0.2284518    -0.1571729
H           6.6482472    -0.2054379    -0.5008546
16
295_C7H7FO_0-4-11-9 (-75,) energy =    -446.0062394
C           1.3953617    -1.0065884    -0.1991043
H           1.9989021    -1.7788773     0.2932051
H           0.6810762    -1.4361979    -0.9057514
F           0.6810090    -0.3486298     0.7902218
O           2.1867142    -0.1267489    -0.9247246
C           5.7275639     1.2187030     0.8289263
H           6.6532028     1.5781603     1.2695988
C           4.4994916     1.6967360     1.2920584
H           4.4678736     2.4295325     2.0938324
C           3.3060714     1.2445524     0.7275032
H           2.3431746     1.6080407     1.0677179
C           3.3557823     0.3015896    -0.3007487
C           4.5753319    -0.1804678    -0.7757476
H           4.5795967    -0.9015436    -1.5875214
C           5.7627352     0.2822276    -0.2063741
H           6.7152877    -0.0894250    -0.5742481
16
295_C7H7FO_0-4-11-9 (-60,) energy =    -446.0070416
C           1.3509964    -0.9563393    -0.1553729
H           1.8610354    -1.6079019     0.5639783
H           0.7141179    -1.5219321    -0.8398131
F           0.5365543    -0.0970695     0.5694824
O           2.2569253    -0.2603993    -0.9424503
C           5.7351092     1.2325144     0.8168644
H           6.6473303     1.6258105     1.2565128
C           4.4907892     1.6230558     1.3154443
H           4.4321967     2.3245836     2.1432464
C           3.3129052     1.1295850     0.7517413
H           2.3399037     1.4359713     1.1174281
C           3.3961346     0.2240711    -0.3087470
C           4.6330032    -0.1698579    -0.8202524
H           4.6616802    -0.8640173    -1.6544568
C           5.8022505     0.3390323    -0.2546266
H           6.7668118     0.0332785    -0.6508046
16
295_C7H7FO_0-4-11-9 (-45,) energy =    -446.0079491
C           1.3153490    -0.9086326    -0.1267370
H           1.7254364    -1.4235168     0.7501564
H           0.7196170    -1.5763822    -0.7535044
F           0.4754367     0.0948117     0.3364922
O           2.3221879    -0.4026566    -0.9347285
C           5.7375265     1.2483210     0.8039655
H           6.6359737     1.6774599     1.2381510
C           4.4848255     1.5556920     1.3364494
H           4.4038611     2.2303866     2.1845271
C           3.3223637     1.0173079     0.7804393
H           2.3442987     1.2727561     1.1707201
C           3.4314489     0.1460783    -0.3066983
C           4.6781591    -0.1642277    -0.8531236
H           4.7262772    -0.8357460    -1.7046350
C           5.8288573     0.3911674    -0.2957144
H           6.7996672     0.1481443    -0.7191999
16
295_C7H7FO_0-4-11-9 (-30,) energy =    -446.0085346
C           1.2810356    -0.8636794    -0.1148285
H           1.5891953    -1.2661672     0.8578091
H           0.6883392    -1.5816361    -0.6861746
F           0.4849176     0.2457218     0.1281056
O           2.3774337    -0.5471991    -0.9011919
C           5.7310421     1.2691916     0.7906730
H           6.6164956     1.7345406     1.2139189
C           4.4769899     1.5037085     1.3538582
H           4.3794621     2.1593381     2.2150659
C           3.3294287     0.9179106     0.8134999
H           2.3513582     1.1337107     1.2266048
C           3.4562681     0.0732855    -0.2928395
C           4.7059976    -0.1645578    -0.8705464
H           4.7696587    -0.8206164    -1.7330253
C           5.8386554     0.4374281    -0.3275940
H           6.8102584     0.2500861    -0.7767157
16
295_C7H7FO_0-4-11-9 (-15,) energy =    -446.0083792
C           1.2551508    -0.8347814    -0.1201349
H           1.4536783    -1.1451316     0.9134263
H           0.6554336    -1.5724883    -0.6577301
F           0.5386352     0.3488145    -0.0688482
O           2.4306399    -0.6940826    -0.8401914
C           5.7248568     1.2947898     0.7730990
H           6.5983188     1.7976904     1.1777207
C           4.4762371     1.4651929     1.3690075
H           4.3703094     2.1089976     2.2380980
C           3.3425026     0.8294288     0.8552489
H           2.3687962     1.0088532     1.2948057
C           3.4776785     0.0039232    -0.2645913
C           4.7235570    -0.1702889    -0.8744611
H           4.7949250    -0.8172455    -1.7431490
C           5.8408441     0.4781802    -0.3556706
H           6.8075253     0.3395528    -0.8322916
16
295_C7H7FO_0-4-11-9 (0,) energy =    -446.0074537
C           1.2327197    -0.8081450    -0.1397358
H           1.3084259    -1.0332128     0.9318379
H           0.6266623    -1.5506225    -0.6635106
F           0.6221540     0.4255165    -0.2634833
O           2.4760525    -0.8299070    -0.7523678
C           5.7172523     1.3264446     0.7506192
H           6.5798969     1.8675849     1.1281518
C           4.4817889     1.4399131     1.3858101
H           4.3756466     2.0767599     2.2599942
C           3.3619801     0.7526038     0.9090186
H           2.3993173     0.8929602     1.3857224
C           3.4949376    -0.0601079    -0.2203851
C           4.7284377    -0.1783894    -0.8681053
H           4.7994422    -0.8204762    -1.7403910
C           5.8326112     0.5165143    -0.3829201
H           6.7884008     0.4211455    -0.8911141
16
295_C7H7FO_0-4-11-9 (15,) energy =    -446.0060113
C           1.2161907    -0.7834638    -0.1773012
H           1.1560242    -0.8980531     0.9127225
H           0.6167196    -1.5414290    -0.6868021
F           0.7234666     0.4652974    -0.4938321
O           2.5127323    -0.9532513    -0.6423561
C           5.7063688     1.3604133     0.7251341
H           6.5577166     1.9408729     1.0683238
C           4.4928618     1.4189175     1.4089279
H           4.3935839     2.0494368     2.2884823
C           3.3886787     0.6792722     0.9774396
H           2.4458081     0.7675005     1.5045766
C           3.5106670    -0.1241493    -0.1594834
C           4.7221092    -0.1888291    -0.8536351
H           4.7861582    -0.8261636    -1.7298941
C           5.8136710     0.5533506    -0.4107377
H           6.7519011     0.4998781    -0.9564049
16
295_C7H7FO_0-4-11-9 (30,) energy =    -446.0046164
C           1.2042631    -0.7443364    -0.2191955
H           1.0222910    -0.6521494     0.8586010
H           0.6188155    -1.5639960    -0.6428957
F           0.8184524     0.4392564    -0.8105706
O           2.5289577    -1.0446118    -0.5085008
C           5.6993386     1.3900839     0.7016536
H           6.5429813     2.0035235     1.0041540
C           4.5225275     1.3948395     1.4500856
H           4.4463735     2.0124465     2.3410226
C           3.4302550     0.6103109     1.0725745
H           2.5226201     0.6355674     1.6656937
C           3.5222294    -0.1777944    -0.0770187
C           4.6961043    -0.1896654    -0.8336548
H           4.7368332    -0.8158532    -1.7192105
C           5.7806896     0.5918894    -0.4419911
H           6.6905405     0.5790843    -1.0360193
16
295_C7H7FO_0-4-11-9 (45,) energy =    -446.0042357
C           1.1893877    -0.7022414    -0.2767414
H           0.9598507    -0.2521866     0.6953234
H           0.5882144    -1.5991212    -0.4454281
F           0.8804768     0.2297926    -1.2462906
O           2.5124536    -1.1086499    -0.3826652
C           5.6754653     1.4029182     0.6878296
H           6.5141716     2.0386795     0.9562900
C           4.5492515     1.3419503     1.5092734
H           4.5100649     1.9267516     2.4243666
C           3.4669121     0.5252718     1.1754020
H           2.6074958     0.4719596     1.8359606
C           3.5156912    -0.2259059    -0.0009017
C           4.6376874    -0.1730573    -0.8288960
H           4.6444876    -0.7698845    -1.7352701
C           5.7164689     0.6378126    -0.4799018
H           6.5883343     0.6758452    -1.1273453
16
295_C7H7FO_0-4-11-9 (60,) energy =    -446.0045838
C           1.2164995    -0.6668909    -0.3372208
H           0.9790230     0.0282962     0.4763823
H           0.5521789    -1.5346730    -0.3288908
F           1.0380307     0.0135775    -1.5252702
O           2.5088542    -1.1664140    -0.2423300
C           5.6564694     1.4184514     0.6805868
H           6.4881436     2.0756535     0.9178314
C           4.5793830     1.3052707     1.5615918
H           4.5729033     1.8695672     2.4902464
C           3.5100674     0.4580153     1.2664348
H           2.6866895     0.3469751     1.9659048
C           3.5223394    -0.2675917     0.0734973
C           4.5929303    -0.1631214    -0.8134918
H           4.5707913    -0.7414954    -1.7313880
C           5.6615923     0.6783016    -0.5037476
H           6.4968326     0.7595621    -1.1940479
16
295_C7H7FO_0-4-11-9 (75,) energy =    -446.0049434
C           1.2405870    -0.6639013    -0.4021460
H           0.9808883     0.1719139     0.2594338
H           0.5153030    -1.4782084    -0.3282683
F           1.2321186    -0.1834451    -1.6974205
O           2.4771654    -1.2102164    -0.0823679
C           5.6271738     1.4275061     0.6596325
H           6.4568914     2.1010207     0.8546645
C           4.6100158     1.2788706     1.6047545
H           4.6476108     1.8326342     2.5389622
C           3.5450121     0.4100072     1.3613869
H           2.7602321     0.2682754     2.0990794
C           3.5049789    -0.3030377     0.1623832
C           4.5123038    -0.1604618    -0.7903033
H           4.4467210    -0.7269448    -1.7133991
C           5.5769590     0.7045162    -0.5344856
H           6.3658144     0.8172739    -1.2732116
16
295_C7H7FO_0-4-11-9 (90,) energy =    -446.0054511
C           1.2750509    -0.6541378    -0.4807415
H           1.0098183     0.2973378    -0.0029401
H           0.4919154    -1.4056376    -0.3526265
F           1.4290647    -0.4081290    -1.8335611
O           2.4326360    -1.1944542     0.0641792
C           5.6229906     1.4304445     0.6568069
H           6.4610424     2.1031673     0.8159771
C           4.6674414     1.2536234     1.6596600
H           4.7606044     1.7875762     2.6014509
C           3.5908690     0.3873531     1.4603589
H           2.8452561     0.2249030     2.2332683
C           3.4842135    -0.3000984     0.2514963
C           4.4271830    -0.1272400    -0.7612522
H           4.3068184    -0.6708345    -1.6921549
C           5.5007499     0.7388857    -0.5508923
H           6.2409378     0.8762058    -1.3344755
16
295_C7H7FO_0-4-11-9 (105,) energy =    -446.0061273
C           1.3016761    -0.6703020    -0.5631902
H           1.0605252     0.3689346    -0.3081580
H           0.4647988    -1.3439580    -0.3632423
F           1.5731816    -0.7094826    -1.9218166
O           2.3736231    -1.1421052     0.1819359
C           5.6287713     1.4269425     0.6609438
H           6.4815965     2.0863950     0.7951782
C           4.7295614     1.2239726     1.7099139
H           4.8791655     1.7258168     2.6620604
C           3.6329553     0.3770111     1.5411933
H           2.9248708     0.1998711     2.3451035
C           3.4508384    -0.2701399     0.3191269
C           4.3397911    -0.0738030    -0.7389432
H           4.1685560    -0.5883950    -1.6775953
C           5.4305968     0.7780226    -0.5600628
H           6.1279575     0.9334809    -1.3788063
16
295_C7H7FO_0-4-11-9 (120,) energy =    -446.0069041
C           1.3225121    -0.6943635    -0.6342958
H           1.1546657     0.3891945    -0.6348412
H           0.4208991    -1.2480817    -0.3614618
F           1.6704283    -1.0599417    -1.9271954
O           2.3000691    -1.0570476     0.2808156
C           5.6379155     1.4191431     0.6738057
H           6.5095237     2.0568865     0.7907479
C           4.7893231     1.1868802     1.7586232
H           4.9958470     1.6460665     2.7216123
C           3.6673084     0.3709102     1.6113990
H           2.9930560     0.1783096     2.4401521
C           3.4086736    -0.2220317     0.3752258
C           4.2489870     0.0002575    -0.7182346
H           4.0278188    -0.4746976    -1.6667390
C           5.3630290     0.8265549    -0.5602335
H           6.0210721     1.0016901    -1.4071414
16
295_C7H7FO_0-4-11-9 (135,) energy =    -446.0078448
C           1.3518975    -0.7165846    -0.7026946
H           1.2662755     0.3521840    -0.9320382
H           0.3931064    -1.1523407    -0.4120156
F           1.7715829    -1.3573616    -1.8603838
O           2.2227080    -0.9403622     0.3528097
C           5.6571740     1.4076499     0.6826508
H           6.5510126     2.0159150     0.7873832
C           4.8491120     1.1507787     1.7933118
H           5.1088360     1.5628820     2.7647013
C           3.6983408     0.3750597     1.6621248
H           3.0518408     0.1698971     2.5096425
C           3.3668791    -0.1569746     0.4145367
C           4.1680163     0.0864484    -0.7040804
H           3.9032486    -0.3480626    -1.6607516
C           5.3110407     0.8759872    -0.5602267
H           5.9369494     1.0665552    -1.4279384
16
295_C7H7FO_0-4-11-9 (150,) energy =    -446.0085108
C           1.3773397    -0.7577458    -0.7525953
H           1.3388215     0.2602001    -1.1590740
H           0.3856798    -1.1310860    -0.4871577
F           1.8895289    -1.5816845    -1.7439058
O           2.1387586    -0.8112938     0.4040772
C           5.6749026     1.3850696     0.6868556
H           6.5931157     1.9572697     0.7827251
C           4.8951919     1.1114019     1.8142599
H           5.2023484     1.4739961     2.7915155
C           3.7144250     0.3821615     1.6944464
H           3.0886670     0.1671916     2.5549831
C           3.3178633    -0.0848901     0.4388154
C           4.0937411     0.1681983    -0.6957248
H           3.7984443    -0.2316319    -1.6584690
C           5.2685455     0.9122233    -0.5606297
H           5.8731049     1.1097675    -1.4418215
16
295_C7H7FO_0-4-11-9 (165,) energy =    -446.0083912
C           1.3848196    -0.7955714    -0.7752401
H           1.3645760     0.1500901    -1.3312256
H           0.3791820    -1.1472660    -0.5346434
F           1.9898076    -1.7411378    -1.5862708
O           2.0461589    -0.6564032     0.4344453
C           5.6935215     1.3542874     0.6892505
H           6.6387320     1.8812971     0.7809777
C           4.9305791     1.0714170     1.8260095
H           5.2791890     1.3791885     2.8081659
C           3.7173691     0.3982338     1.7110447
H           3.1062192     0.1763412     2.5802408
C           3.2620853     0.0042081     0.4494403
C           4.0252305     0.2578542    -0.6938797
H           3.7050670    -0.1038003    -1.6635293
C           5.2359093     0.9435122    -0.5618511
H           5.8287962     1.1415907    -1.4508373
16
295_C7H7FO_0-4-11-9 (180,) energy =    -446.0074036
C           1.3957827    -0.8406628    -0.7847691
H           1.3797570     0.0100355    -1.4780441
H           0.3865788    -1.1909694    -0.5574471
F           2.0895100    -1.8656722    -1.3994830
O           1.9624403    -0.4950307     0.4323157
C           5.7136855     1.3152342     0.6923917
H           6.6847874     1.7919635     0.7881551
C           4.9549420     1.0250905     1.8300727
H           5.3336245     1.2744855     2.8176409
C           3.7107636     0.4126463     1.7101123
H           3.1044983     0.1818361     2.5803776
C           3.2130930     0.0963555     0.4423864
C           3.9734560     0.3528834    -0.7020467
H           3.6295506     0.0440012    -1.6817838
C           5.2186767     0.9727864    -0.5647936
H           5.8080041     1.1731321    -1.4556579
