14
145_C4H10_0-1-3-2 (-165,) energy =    -158.4574036
C           1.0460290    -0.8002669    -1.0190789
C           2.0304186    -0.9920853     0.1391808
C           4.3651469    -0.4108846     1.0245729
C           3.2067245    -0.0042140     0.1080255
H           0.2124855    -1.5095830    -0.9598699
H           0.6211344     0.2115333    -1.0189592
H           1.5433211    -0.9484757    -1.9853716
H           1.5034699    -0.9057584     1.0996577
H           2.4256465    -2.0176764     0.1024973
H           5.1806843     0.3206608     0.9903722
H           4.0381299    -0.4944120     2.0687750
H           4.7761317    -1.3839896     0.7293695
H           3.5805385     0.0719560    -0.9234051
H           2.8500158     1.0003787     0.3748506
14
145_C4H10_0-1-3-2 (-150,) energy =    -158.4555978
C           1.0983636    -0.8493131    -1.0530026
C           1.9751380    -0.9284177     0.2013386
C           4.3846723    -0.4505532     0.9586909
C           3.1631030     0.0542181     0.1832317
H           0.2558677    -1.5486148    -0.9995866
H           0.6849610     0.1578098    -1.1916006
H           1.6797557    -1.0927960    -1.9505099
H           1.3665737    -0.7630671     1.1004322
H           2.3631206    -1.9537437     0.2872262
H           5.2032023     0.2783355     0.9385609
H           4.1404475    -0.6458019     2.0106605
H           4.7592474    -1.3872601     0.5284658
H           3.4643038     0.2287124    -0.8598553
H           2.8458286     1.0318622     0.5700255
14
145_C4H10_0-1-3-2 (-135,) energy =    -158.4536663
C           1.1619766    -0.9033365    -1.0740081
C           1.9209996    -0.8669529     0.2571098
C           4.3926862    -0.4849569     0.8802146
C           3.1240575     0.1077935     0.2568826
H           0.3152019    -1.5986430    -1.0360905
H           0.7676066     0.0863224    -1.3370032
H           1.8212775    -1.2223034    -1.8905462
H           1.2306247    -0.6143258     1.0721760
H           2.2812189    -1.8817963     0.4770885
H           5.2210258     0.2331088     0.8679014
H           4.2252566    -0.7810458     1.9234871
H           4.7156892    -1.3786937     0.3324414
H           3.3510967     0.3976366    -0.7787331
H           2.8558736     1.0385555     0.7731482
14
145_C4H10_0-1-3-2 (-120,) energy =    -158.4527684
C           1.2360457    -0.9547636    -1.0816969
C           1.8680024    -0.8038267     0.3068702
C           4.3851938    -0.5157222     0.7954357
C           3.0872117     0.1555831     0.3319042
H           0.3879347    -1.6493744    -1.0653705
H           0.8706107     0.0089444    -1.4573293
H           1.9654464    -1.3356658    -1.8074960
H           1.1030060    -0.4580566     1.0137529
H           2.1767304    -1.7951539     0.6657952
H           5.2273520     0.1862377     0.7873771
H           4.2864745    -0.9064082     1.8157271
H           4.6473200    -1.3589100     0.1441138
H           3.2429053     0.5735583    -0.6720510
H           2.8759737     1.0150238     0.9809031
14
145_C4H10_0-1-3-2 (-105,) energy =    -158.4534370
C           1.3206566    -1.0123698    -1.0766820
C           1.8222162    -0.7443758     0.3473465
C           4.3673960    -0.5406001     0.6976249
C           3.0542225     0.1933844     0.4008381
H           0.4692641    -1.7030751    -1.0809755
H           0.9987924    -0.0819825    -1.5599854
H           2.1082603    -1.4527240    -1.7013258
H           0.9992272    -0.3098727     0.9295848
H           2.0642469    -1.6968188     0.8380363
H           5.2220587     0.1460680     0.6973764
H           4.3303127    -1.0278486     1.6794665
H           4.5673246    -1.3194045    -0.0493045
H           3.1429058     0.7375441    -0.5491768
H           2.9034829     0.9609986     1.1710012
14
145_C4H10_0-1-3-2 (-90,) energy =    -158.4550899
C           1.0399209    -1.2266826     0.1629802
C           2.2720544    -0.9494990    -0.7068711
C           3.8675972     0.6373219     0.5420389
C           3.5777518    -0.8031632     0.1031568
H           0.1280314    -1.2928264    -0.4418521
H           1.1508877    -2.1734157     0.7053211
H           0.8846315    -0.4360221     0.9077912
H           2.3798307    -1.7738746    -1.4244454
H           2.1111091    -0.0447371    -1.3090935
H           4.7838940     0.6980247     1.1407500
H           3.9930956     1.2921268    -0.3287259
H           3.0501500     1.0475529     1.1482507
H           3.5404099    -1.4631297     0.9807781
H           4.4230769    -1.1554387    -0.5030207
14
145_C4H10_0-1-3-2 (-75,) energy =    -158.4564964
C           1.0575680    -1.1233111     0.1639822
C           2.2975268    -1.0113770    -0.7312944
C           3.7999350     0.5956965     0.6105023
C           3.6132636    -0.8165732     0.0428798
H           0.1492786    -1.2699863    -0.4318324
H           1.1467556    -1.9744894     0.8504034
H           0.9093335    -0.2228272     0.7716219
H           2.3739047    -1.9240072    -1.3379681
H           2.1697322    -0.1833228    -1.4429705
H           4.7532753     0.6867541     1.1437463
H           3.7945748     1.3433857    -0.1923457
H           3.0032732     0.8617340     1.3152184
H           3.6684666    -1.5550095     0.8553775
H           4.4556417    -1.0381929    -0.6264963
14
145_C4H10_0-1-3-2 (-60,) energy =    -158.4566956
C           1.0772022    -1.0278066     0.1496125
C           2.3188180    -1.0753743    -0.7486665
C           3.7451287     0.5436137     0.6737222
C           3.6478554    -0.8215663    -0.0173633
H           0.1727694    -1.2780374    -0.4167402
H           1.1592236    -1.7442155     0.9771514
H           0.9264817    -0.0341163     0.5855932
H           2.3702481    -2.0565171    -1.2398162
H           2.2076213    -0.3369042    -1.5561111
H           4.7353846     0.6878917     1.1208762
H           3.5809647     1.3614319    -0.0397298
H           3.0052345     0.6494315     1.4747062
H           3.8033249    -1.6146933     0.7285915
H           4.4699027    -0.9187746    -0.7393765
14
145_C4H10_0-1-3-2 (-45,) energy =    -158.4553650
C           1.0908519    -0.9406339     0.1338639
C           2.3296711    -1.1361844    -0.7480953
C           3.6990988     0.4964159     0.7344431
C           3.6752375    -0.8079593    -0.0710388
H           0.1841982    -1.2576475    -0.3942076
H           1.1566296    -1.5283720     1.0588083
H           0.9568438     0.1086723     0.4169969
H           2.3622216    -2.1703412    -1.1152750
H           2.2186606    -0.5032519    -1.6409260
H           4.7037277     0.6924742     1.1264380
H           3.4117800     1.3576575     0.1171947
H           3.0145047     0.4577147     1.5882575
H           3.9423834    -1.6336488     0.6049371
H           4.4597492    -0.7825065    -0.8386677
14
145_C4H10_0-1-3-2 (-30,) energy =    -158.4528479
C           1.0950206    -0.8691383     0.1074401
C           2.3349542    -1.1959867    -0.7339784
C           3.6736432     0.4511999     0.7904320
C           3.6966795    -0.7811505    -0.1222738
H           0.1873532    -1.2253546    -0.3933088
H           1.1326036    -1.3451109     1.0957230
H           0.9848482     0.2089979     0.2630803
H           2.3574495    -2.2698441    -0.9583565
H           2.2169361    -0.6926514    -1.7043843
H           4.6835237     0.6812292     1.1492184
H           3.3003767     1.3415904     0.2683761
H           3.0394610     0.2920064     1.6686175
H           4.0879328    -1.6218082     0.4686386
H           4.4196661    -0.6276273    -0.9332871
14
145_C4H10_0-1-3-2 (-15,) energy =    -158.4502287
C           1.0827089    -0.7941561     0.0731093
C           2.3306224    -1.2379580    -0.7018830
C           3.6602653     0.4079328     0.8604427
C           3.7023169    -0.7407908    -0.1561825
H           0.1796362    -1.1977961    -0.3993018
H           1.0937127    -1.1470788     1.1114918
H           0.9841614     0.2962425     0.0949668
H           2.3444580    -2.3330999    -0.7632956
H           2.2154461    -0.8886277    -1.7369702
H           4.6762327     0.6721986     1.1760557
H           3.2021627     1.3128211     0.4430307
H           3.0963313     0.1354003     1.7586982
H           4.2177421    -1.5842482     0.3230035
H           4.3402205    -0.4502532    -0.9999630
14
145_C4H10_0-1-3-2 (0,) energy =    -158.4490521
C           1.0750601    -0.7245464     0.0117808
C           2.3326636    -1.2751991    -0.6748592
C           3.6641382     0.3429845     0.9270156
C           3.7049844    -0.7093627    -0.1897461
H           0.1784679    -1.1925040    -0.4111282
H           1.0728816    -0.9263683     1.0887861
H           0.9739108     0.3581983    -0.1227119
H           2.3352102    -2.3662163    -0.5569626
H           2.2362466    -1.0998466    -1.7538401
H           4.6813190     0.6620696     1.1824405
H           3.1054251     1.2372546     0.6290262
H           3.2034096    -0.0460945     1.8418938
H           4.3339202    -1.5421358     0.1496256
H           4.2349700    -0.2757826    -1.0472705
14
145_C4H10_0-1-3-2 (15,) energy =    -158.4502287
C           1.0879745    -0.6803851    -0.0749020
C           2.3517414    -1.3245819    -0.6603623
C           3.6866097     0.2551379     0.9645515
C           3.7128128    -0.6931976    -0.2416132
H           0.1944580    -1.2047976    -0.4330332
H           1.0792524    -0.7234788     1.0192758
H           0.9876300     0.3722275    -0.3661981
H           2.3479428    -2.3824601    -0.3644296
H           2.2791302    -1.3274449    -1.7549031
H           4.6929914     0.6402127     1.1659256
H           3.0327806     1.1161842     0.7905839
H           3.3399563    -0.2456333     1.8766783
H           4.4371545    -1.4949284    -0.0522537
H           4.1168638    -0.1294509    -1.0934521
14
145_C4H10_0-1-3-2 (30,) energy =    -158.4528479
C           1.0890738    -0.6416038    -0.1432984
C           2.3603726    -1.3571444    -0.6166357
C           3.7071659     0.1896219     1.0028709
C           3.6988369    -0.6540370    -0.2779168
H           0.1976209    -1.1987670    -0.4537505
H           1.0585863    -0.5508528     0.9473774
H           1.0066732     0.3692116    -0.5629751
H           2.3637779    -2.3583805    -0.1622390
H           2.3096716    -1.5239454    -1.6999766
H           4.7008286     0.6206021     1.1713651
H           2.9932992     1.0178136     0.9460208
H           3.4538841    -0.4067766     1.8887735
H           4.4950203    -1.4075711    -0.2299683
H           3.9686665     0.0098771    -1.1118064
14
145_C4H10_0-1-3-2 (45,) energy =    -158.4553650
C           1.0791103    -0.6116949    -0.2177767
C           2.3629547    -1.3760187    -0.5617587
C           3.7425293     0.1283556     1.0420717
C           3.6736484    -0.6072538    -0.3013960
H           0.1936318    -1.1962046    -0.4928312
H           1.0110821    -0.3957614     0.8536272
H           1.0226290     0.3448741    -0.7535696
H           2.3757467    -2.3067456     0.0244627
H           2.3380744    -1.6848160    -1.6150299
H           4.7259831     0.5919098     1.1810493
H           2.9919551     0.9230277     1.1076157
H           3.5774780    -0.5547202     1.8855489
H           4.5155826    -1.3071504    -0.3829221
H           3.8169824     0.1307277    -1.1044591
14
145_C4H10_0-1-3-2 (60,) energy =    -158.4566956
C           1.0528217    -0.5898803    -0.2954649
C           2.3537418    -1.3766236    -0.4940158
C           3.7933762     0.0762227     1.0856511
C           3.6368022    -0.5497867    -0.3051678
H           0.1786192    -1.2169274    -0.5051099
H           0.9521187    -0.2196271     0.7306869
H           1.0078061     0.2772284    -0.9669459
H           2.3700545    -2.2273202     0.2029180
H           2.3612786    -1.8107964    -1.5029519
H           4.7534023     0.5973161     1.1760963
H           3.0034643     0.8054777     1.2964645
H           3.7562511    -0.6894789     1.8712168
H           4.5027394    -1.1939613    -0.5093903
H           3.6647624     0.2462528    -1.0635918
14
145_C4H10_0-1-3-2 (75,) energy =    -158.4564964
C           1.0241130    -0.5723327    -0.3881100
C           2.3365987    -1.3643985    -0.4276246
C           3.8572519     0.0152596     1.1294527
C           3.5980539    -0.4930114    -0.2939324
H           0.1571670    -1.2343305    -0.4960992
H           0.9043144    -0.0262752     0.5550443
H           0.9861098     0.1618515    -1.2024578
H           2.3363241    -2.1257853     0.3653305
H           2.3839249    -1.9149326    -1.3770734
H           4.7692489     0.6216398     1.1748711
H           3.0321547     0.6357238     1.4986539
H           3.9790829    -0.8224143     1.8273729
H           4.4694829    -1.0767272    -0.6205328
H           3.5257364     0.3579939    -0.9860652
14
145_C4H10_0-1-3-2 (90,) energy =    -158.4550899
C           0.9979566    -0.5695181    -0.4896198
C           2.3145720    -1.3454194    -0.3625968
C           3.9334202    -0.0492972     1.1615015
C           3.5591015    -0.4367088    -0.2742671
H           0.1349337    -1.2449008    -0.5176906
H           0.8509595     0.1180986     0.3527435
H           0.9850383     0.0279964    -1.4091642
H           2.2791093    -2.0045987     0.5156922
H           2.4093672    -2.0081928    -1.2331537
H           4.8008257     0.6206750     1.1834851
H           3.1076880     0.4639694     1.6701513
H           4.1828309    -0.9387732     1.7525845
H           4.4174023    -0.9505809    -0.7274549
H           3.3962683     0.4672767    -0.8771450
14
145_C4H10_0-1-3-2 (105,) energy =    -158.4534370
C           0.9696987    -0.5830190    -0.5881934
C           2.2842489    -1.3148927    -0.2922896
C           4.0179609    -0.1052803     1.1819045
C           3.5150235    -0.3753835    -0.2412395
H           0.1159893    -1.2708690    -0.5862208
H           0.7696041     0.1962506     0.1582059
H           1.0049082    -0.0966966    -1.5705632
H           2.1974802    -1.8582320     0.6583717
H           2.4351037    -2.0830654    -1.0618736
H           4.8684081     0.5865971     1.1844629
H           3.2305212     0.3346110     1.8070808
H           4.3417004    -1.0347432     1.6657341
H           4.3378976    -0.8093283    -0.8240568
H           3.2710798     0.5762368    -0.7325780
14
145_C4H10_0-1-3-2 (120,) energy =    -158.4527684
C           0.9508353    -0.6092523    -0.6840062
C           2.2511908    -1.2769727    -0.2219524
C           4.1026640    -0.1603294     1.1862733
C           3.4683341    -0.3148513    -0.2008162
H           0.1102408    -1.3130469    -0.6732020
H           0.6881233     0.2343858    -0.0335037
H           1.0467109    -0.2199620    -1.7051020
H           2.0983702    -1.6937054     0.7829602
H           2.4630598    -2.1369713    -0.8700068
H           4.9492181     0.5361076     1.1671917
H           3.3738474     0.2201245     1.9128939
H           4.4709412    -1.1226398     1.5627123
H           4.2327031    -0.6600678    -0.9086481
H           3.1567372     0.6752282    -0.5607045
14
145_C4H10_0-1-3-2 (135,) energy =    -158.4536663
C           0.9455511    -0.6434979    -0.7718151
C           2.2168673    -1.2322114    -0.1501375
C           4.1793365    -0.2142163     1.1749317
C           3.4176268    -0.2546378    -0.1545328
H           0.1189202    -1.3634724    -0.7565128
H           0.6216009     0.2504326    -0.2249138
H           1.1101045    -0.3488316    -1.8159453
H           1.9926598    -1.5208643     0.8864235
H           2.4861930    -2.1631904    -0.6654201
H           5.0243638     0.4830469     1.1340789
H           3.5209939     0.1045433     1.9923263
H           4.5766147    -1.2024921     1.4387402
H           4.1068798    -0.5070725    -0.9706097
H           3.0545980     0.7589881    -0.3754877
14
145_C4H10_0-1-3-2 (150,) energy =    -158.4555978
C           0.9539437    -0.6742292    -0.8517755
C           2.1766995    -1.1772314    -0.0770365
C           4.2416305    -0.2707511     1.1567164
C           3.3636708    -0.1934172    -0.0969063
H           0.1361443    -1.4039016    -0.8303746
H           0.5788423     0.2624312    -0.4219090
H           1.1970336    -0.4795229    -1.9041089
H           1.8765947    -1.3512428     0.9664460
H           2.4946080    -2.1548387    -0.4633963
H           5.0833656     0.4293713     1.1020713
H           3.6607778    -0.0272379     2.0545641
H           4.6561859    -1.2773539     1.2956532
H           3.9715946    -0.3587967    -0.9964251
H           2.9745700     0.8314534    -0.1831586
14
145_C4H10_0-1-3-2 (165,) energy =    -158.4574036
C           0.9727536    -0.7098285    -0.9173160
C           2.1311836    -1.1164889    -0.0007717
C           4.2918900    -0.3204215     1.1263271
C           3.3074923    -0.1286129    -0.0319290
H           0.1572380    -1.4413995    -0.8831408
H           0.5617073     0.2632273    -0.6220168
H           1.2997612    -0.6261781    -1.9615058
H           1.7573702    -1.1926557     1.0306594
H           2.4878835    -2.1210852    -0.2675897
H           5.1254514     0.3888710     1.0670882
H           3.7945992    -0.1720894     2.0926075
H           4.7167138    -1.3322458     1.1263063
H           3.8344434    -0.2149283    -0.9924043
H           2.9122621     0.8969772     0.0047565
14
145_C4H10_0-1-3-2 (180,) energy =    -158.4581272
C           1.0057092    -0.7532667    -0.9766903
C           2.0838042    -1.0561782     0.0687887
C           4.3348570    -0.3707136     1.0802532
C           3.2567620    -0.0678022     0.0347742
H           0.1833758    -1.4761742    -0.9265752
H           0.5794424     0.2467290    -0.8287075
H           1.4184382    -0.7885396    -1.9925947
H           1.6343484    -1.0485349     1.0721576
H           2.4667394    -2.0754963    -0.0839722
H           5.1574276     0.3519010     1.0298086
H           3.9229069    -0.3358881     2.0964609
H           4.7607538    -1.3707665     0.9313995
H           3.7062766    -0.0761854    -0.9686454
H           2.8742363     0.9516777     0.1869354
