28
181_C11H15NO_0-5-6-23 (-165,) energy =    -558.1878499
N           1.4348370    -1.6605666    -0.0706989
C           0.8116100    -0.3472368    -0.0846761
H           0.2723607    -0.1790870    -1.0287319
H           1.5408578     0.4503001     0.0386062
H           0.0840633    -0.2696380     0.7338832
C           2.7843101    -1.9317204    -0.1834597
C           3.7688660    -0.7537326     0.0031841
C           3.8017860    -0.3471037     1.4991784
H           4.4939163     0.4883622     1.6453540
H           4.1488494    -1.1836933     2.1137324
H           2.8152068    -0.0486361     1.8682290
H           3.4151270     0.1063125    -0.5758119
O           3.1862518    -3.0810915    -0.3315238
C           0.4956232    -2.7694635    -0.1847509
H          -0.0421605    -2.7334496    -1.1429288
H          -0.2418608    -2.7172766     0.6258558
H           1.0510151    -3.7034613    -0.1226972
C           7.8048633    -1.5402806    -1.3751935
H           8.8214008    -1.7222924    -1.7141904
C           7.2255542    -2.3686740    -0.4110700
H           7.7903160    -3.2017655    -0.0003842
C           5.9220710    -2.1400448     0.0273739
H           5.4765254    -2.8043800     0.7587019
C           5.1704446    -1.0758102    -0.4922214
C           5.7619419    -0.2542850    -1.4594127
H           5.1938970     0.5760884    -1.8748738
C           7.0674731    -0.4801528    -1.9005623
H           7.5039721     0.1718085    -2.6529210
28
181_C11H15NO_0-5-6-23 (-150,) energy =    -558.1888775
N           1.4335571    -1.6153367    -0.1237271
C           0.8842494    -0.2792900    -0.3034322
H           0.7959689    -0.0040581    -1.3651799
H           1.4810262     0.4764560     0.2068665
H          -0.1197752    -0.2513804     0.1338147
C           2.7710333    -1.9266102     0.0036279
C           3.7682391    -0.7561070     0.1442437
C           3.8598783    -0.3697877     1.6413855
H           4.5617170     0.4594094     1.7763137
H           4.2146352    -1.2187167     2.2335873
H           2.8843130    -0.0680241     2.0399490
H           3.3953772     0.1123210    -0.4063656
O           3.1501676    -3.0915425     0.0784233
C           0.4821037    -2.7060374    -0.3029343
H           0.0494241    -2.6853867    -1.3129015
H          -0.3345422    -2.6196326     0.4246095
H           1.0075193    -3.6479556    -0.1559238
C           7.7045721    -1.5651002    -1.4901883
H           8.6949390    -1.7536143    -1.8964586
C           7.1930710    -2.3781478    -0.4761638
H           7.7846673    -3.2059175    -0.0933643
C           5.9236671    -2.1406346     0.0499597
H           5.5275254    -2.7930744     0.8188420
C           5.1384437    -1.0826781    -0.4321553
C           5.6622768    -0.2757705    -1.4500798
H           5.0679016     0.5502058    -1.8364273
C           6.9334440    -0.5106651    -1.9777419
H           7.3172922     0.1299049    -2.7676822
28
181_C11H15NO_0-5-6-23 (-135,) energy =    -558.1893472
N           1.2392650    -1.6204669    -0.1111514
C           0.7447310    -0.2942619    -0.4611896
H           0.9845835    -0.0123035    -1.4964198
H           1.1305799     0.4740985     0.2122206
H          -0.3443120    -0.2961140    -0.3585155
C           2.5359640    -1.9179097     0.2423719
C           3.5358301    -0.7525366     0.3799699
C           3.7035764    -0.4456706     1.8872856
H           4.4188709     0.3703674     2.0314361
H           4.0717820    -1.3290622     2.4165438
H           2.7479467    -0.1542456     2.3399641
H           3.1414530     0.1445355    -0.1024932
O           2.8821312    -3.0674011     0.5047080
C           0.3010830    -2.7216548    -0.3022174
H          -0.0200073    -2.7821605    -1.3508688
H          -0.5876352    -2.5799644     0.3253704
H           0.8005957    -3.6479038    -0.0237329
C           7.3733016    -1.4880181    -1.5112027
H           8.3384713    -1.6581337    -1.9812468
C           6.8982474    -2.3702909    -0.5382583
H           7.4932999    -3.2336098    -0.2511743
C           5.6616739    -2.1563953     0.0704788
H           5.2884897    -2.8597563     0.8050861
C           4.8726824    -1.0529134    -0.2882457
C           5.3592301    -0.1763821    -1.2669470
H           4.7619597     0.6861102    -1.5570273
C           6.5979099    -0.3876819    -1.8754507
H           6.9533481     0.3069017    -2.6323958
28
181_C11H15NO_0-5-6-23 (-120,) energy =    -558.1903317
N           1.4298393    -1.6289598    -0.1667333
C           1.0567369    -0.4201209    -0.8937627
H           1.8769810    -0.0533677    -1.5149145
H           0.7256130     0.3884562    -0.2270054
H           0.2268135    -0.6630164    -1.5634514
C           2.6623857    -1.8630588     0.3938328
C           3.6651530    -0.6969837     0.4644500
C           3.9505208    -0.4225805     1.9604020
H           4.6773437     0.3898113     2.0613671
H           4.3527623    -1.3191799     2.4382065
H           3.0331890    -0.1359438     2.4884737
H           3.2323261     0.2130872     0.0437455
O           2.9415176    -2.9452513     0.9086539
C           0.4136849    -2.6724578    -0.0844830
H           0.1662708    -3.0576627    -1.0824256
H          -0.5020948    -2.2760797     0.3721246
H           0.8058850    -3.4843835     0.5255938
C           7.3767499    -1.4206205    -1.6693542
H           8.3111832    -1.5895537    -2.1981597
C           6.8746703    -2.3903886    -0.7987649
H           7.4179323    -3.3202817    -0.6502815
C           5.6771593    -2.1789165    -0.1150813
H           5.2800843    -2.9408943     0.5462543
C           4.9563642    -0.9888948    -0.2953299
C           5.4678007    -0.0244437    -1.1741248
H           4.9231730     0.9061743    -1.3236356
C           6.6680692    -0.2338193    -1.8556722
H           7.0456006     0.5292330    -2.5316954
28
181_C11H15NO_0-5-6-23 (-105,) energy =    -558.1919155
N           1.7212507    -1.7842341    -0.4417316
C           1.9511044    -2.3796230    -1.7516761
H           1.5806217    -3.4104877    -1.7391807
H           3.0144737    -2.4217900    -1.9892544
H           1.4243708    -1.8415673    -2.5529257
C           2.5752064    -0.9163457     0.1942807
C           3.7380092    -0.3111495    -0.6147740
C           3.7696417     1.2105122    -0.3536755
H           4.6058974     1.6655334    -0.8943478
H           3.8845279     1.4100814     0.7138432
H           2.8393264     1.6830276    -0.6895181
H           3.5747463    -0.4558903    -1.6858269
O           2.3971496    -0.5749458     1.3629229
C           0.5364350    -2.2497936     0.2684650
H           0.6113719    -3.3213861     0.4974811
H          -0.3584408    -2.0886833    -0.3459485
H           0.4505733    -1.6907074     1.1987754
C           7.5678939    -2.0974315     0.3808413
H           8.5315290    -2.5361512     0.6259768
C           6.6944744    -1.7046716     1.3977078
H           6.9768239    -1.8395630     2.4387855
C           5.4567119    -1.1404961     1.0891606
H           4.7738978    -0.8476851     1.8803403
C           5.0705690    -0.9600257    -0.2473896
C           5.9531479    -1.3604694    -1.2594778
H           5.6706678    -1.2224805    -2.3016710
C           7.1932984    -1.9233029    -0.9514736
H           7.8631941    -2.2255698    -1.7524899
28
181_C11H15NO_0-5-6-23 (-90,) energy =    -558.1930315
N           1.8118445    -1.7942991    -0.3947815
C           2.1522696    -2.4701513    -1.6384783
H           1.9140984    -3.5349246    -1.5376425
H           3.2184795    -2.3963554    -1.8520306
H           1.5836528    -2.0771208    -2.4940436
C           2.5241032    -0.7633711     0.1673717
C           3.7100127    -0.1837589    -0.6290127
C           3.8324236     1.3231232    -0.3306696
H           4.6874409     1.7425360    -0.8709552
H           3.9696488     1.4914538     0.7393981
H           2.9267453     1.8555421    -0.6413133
H           3.5250032    -0.2961093    -1.7022272
O           2.2331084    -0.2996035     1.2690258
C           0.6288237    -2.2911015     0.2954185
H           0.7728654    -3.3315388     0.6160399
H          -0.2438124    -2.2519405    -0.3695090
H           0.4529160    -1.6662927     1.1696347
C           7.4265724    -2.2188470     0.3158030
H           8.3615893    -2.7199253     0.5518002
C           6.5543351    -1.8386613     1.3385648
H           6.8091859    -2.0447720     2.3749864
C           5.3532456    -1.1958856     1.0396429
H           4.6733643    -0.9074086     1.8361208
C           5.0032742    -0.9220060    -0.2909733
C           5.8850915    -1.3083516    -1.3089909
H           5.6314840    -1.0963067    -2.3461315
C           7.0884977    -1.9510276    -1.0108198
H           7.7591142    -2.2415376    -1.8155077
28
181_C11H15NO_0-5-6-23 (-75,) energy =    -558.1930145
N           1.8991864    -1.8219077    -0.3436168
C           2.3018272    -2.5620406    -1.5287987
H           2.2354817    -3.6360064    -1.3186308
H           3.3336582    -2.3477920    -1.8014219
H           1.6479974    -2.3458156    -2.3870413
C           2.4666735    -0.6508205     0.0996835
C           3.6935406    -0.1023384    -0.6599346
C           3.8846182     1.3879638    -0.3274379
H           4.7520861     1.7813842    -0.8676083
H           4.0415608     1.5271975     0.7442943
H           2.9996390     1.9659439    -0.6121719
H           3.5087819    -0.1833337    -1.7381588
O           2.0438514    -0.0658391     1.0951668
C           0.7110530    -2.3251312     0.3326665
H           0.8806072    -3.3492006     0.6895482
H          -0.1485776    -2.3364103    -0.3514949
H           0.4938516    -1.6739878     1.1777569
C           7.3156746    -2.3082119     0.2657385
H           8.2278309    -2.8505721     0.4996872
C           6.4214464    -1.9641496     1.2821835
H           6.6363908    -2.2381247     2.3118617
C           5.2498251    -1.2689951     0.9836096
H           4.5569657    -1.0028242     1.7776973
C           4.9503240    -0.9069807    -0.3379033
C           5.8555798    -1.2551693    -1.3488570
H           5.6420368    -0.9733352    -2.3783645
C           7.0297269    -1.9504440    -1.0520952
H           7.7189550    -2.2112680    -1.8511631
28
181_C11H15NO_0-5-6-23 (-60,) energy =    -558.1916866
N           1.9726457    -1.8270743    -0.2671069
C           2.4255886    -2.6400931    -1.3840740
H           2.5400904    -3.6807305    -1.0568317
H           3.3905185    -2.3051718    -1.7571658
H           1.6967940    -2.6235516    -2.2086169
C           2.4096983    -0.5551087     0.0284081
C           3.6886044    -0.0334661    -0.6675474
C           3.9254819     1.4368565    -0.2822458
H           4.8071022     1.8198887    -0.8067431
H           4.0874633     1.5341822     0.7940267
H           3.0592889     2.0508670    -0.5439615
H           3.5172632    -0.0688628    -1.7527785
O           1.8422833     0.1356663     0.8713545
C           0.7706982    -2.3169833     0.3950436
H           0.9380267    -3.3385407     0.7577635
H          -0.0840942    -2.3323952    -0.2964410
H           0.5398612    -1.6583047     1.2304518
C           7.2494145    -2.3568150     0.2044340
H           8.1474874    -2.9268921     0.4264858
C           6.3283341    -2.0742430     1.2155933
H           6.5082459    -2.4226273     2.2293744
C           5.1745738    -1.3438918     0.9312725
H           4.4641836    -1.1245598     1.7247139
C           4.9178195    -0.8860600    -0.3690309
C           5.8519433    -1.1713071    -1.3735960
H           5.6732026    -0.8151698    -2.3865681
C           7.0083245    -1.9015561    -1.0922778
H           7.7191527    -2.1134490    -1.8868502
28
181_C11H15NO_0-5-6-23 (-45,) energy =    -558.1895404
N           2.0006735    -1.8202677    -0.2114635
C           2.5197597    -2.7254870    -1.2260136
H           2.7756124    -3.6916707    -0.7739443
H           3.4172260    -2.3282162    -1.6932148
H           1.7651676    -2.9034378    -2.0068637
C           2.3365270    -0.4894268    -0.0841334
C           3.6772980     0.0120193    -0.6790610
C           3.9342088     1.4574140    -0.2160695
H           4.8388985     1.8441675    -0.6965315
H           4.0723625     1.4984442     0.8681183
H           3.0876687     2.1002014    -0.4676352
H           3.5447403     0.0378145    -1.7717734
O           1.6245263     0.2820073     0.5531608
C           0.7630685    -2.2675929     0.4160015
H           0.8943599    -3.2937936     0.7776243
H          -0.0777211    -2.2542801    -0.2930535
H           0.5259164    -1.6052967     1.2469968
C           7.1953554    -2.3908702     0.1511967
H           8.0845992    -2.9788131     0.3618849
C           6.2546918    -2.1523534     1.1554951
H           6.4106662    -2.5531909     2.1537606
C           5.1123078    -1.3990043     0.8846226
H           4.3870915    -1.2193472     1.6743921
C           4.8846118    -0.8739747    -0.3955905
C           5.8399282    -1.1142008    -1.3924225
H           5.6864504    -0.7059808    -2.3897429
C           6.9846535    -1.8672689    -1.1248331
H           7.7107694    -2.0433741    -1.9142717
28
181_C11H15NO_0-5-6-23 (-30,) energy =    -558.1868880
N           2.0318453    -1.8672390    -0.2023999
C           2.6298125    -2.8567788    -1.0906958
H           2.9414035    -3.7422413    -0.5235025
H           3.5036154    -2.4578590    -1.5991350
H           1.8996253    -3.1737960    -1.8499372
C           2.2947271    -0.5132084    -0.2368171
C           3.6871054     0.0015176    -0.6945592
C           3.9202246     1.4069373    -0.1053083
H           4.8476278     1.8270671    -0.5077546
H           4.0092987     1.3605157     0.9847566
H           3.0848055     2.0665971    -0.3458412
H           3.6112562     0.1210832    -1.7869959
O           1.4634815     0.2924509     0.1726917
C           0.7453061    -2.2720845     0.3550041
H           0.8385669    -3.2887217     0.7518139
H          -0.0502937    -2.2638475    -0.4041983
H           0.4640274    -1.5852357     1.1520945
C           7.1954510    -2.4307378     0.0856016
H           8.0829557    -3.0253641     0.2844110
C           6.2459102    -2.2269809     1.0894712
H           6.3932237    -2.6615378     2.0749162
C           5.1060713    -1.4645144     0.8348999
H           4.3727125    -1.3159511     1.6232841
C           4.8871252    -0.8968171    -0.4291629
C           5.8525990    -1.1017379    -1.4241949
H           5.7075028    -0.6590845    -2.4078818
C           6.9956147    -1.8633657    -1.1731958
H           7.7289451    -2.0110518    -1.9618111
28
181_C11H15NO_0-5-6-23 (-15,) energy =    -558.1841833
N           2.0669925    -1.8023708    -0.1756918
C           2.7149663    -2.8834129    -0.9140771
H           3.0230148    -3.6860186    -0.2333806
H           3.5954077    -2.5308335    -1.4441531
H           2.0140302    -3.3041295    -1.6497612
C           2.3137887    -0.4572889    -0.3705716
C           3.7436624     0.0640745    -0.6930159
C           3.9464658     1.4078632     0.0413393
H           4.8927558     1.8607219    -0.2712912
H           3.9831385     1.2578919     1.1256865
H           3.1222715     2.0871698    -0.1806023
H           3.7185364     0.2946896    -1.7690172
O           1.4230249     0.3672482    -0.1853769
C           0.7314292    -2.1458247     0.3065570
H           0.7774757    -3.1295916     0.7852731
H          -0.0027935    -2.1855593    -0.5108626
H           0.3993529    -1.3982271     1.0259859
C           7.2302118    -2.4262129    -0.0071349
H           8.1126889    -3.0358322     0.1671938
C           6.3038862    -2.2175967     1.0177792
H           6.4652304    -2.6647193     1.9953944
C           5.1719498    -1.4347277     0.7942170
H           4.4553569    -1.2838476     1.5973811
C           4.9352196    -0.8512060    -0.4603522
C           5.8779285    -1.0604216    -1.4757738
H           5.7201202    -0.6050953    -2.4515279
C           7.0139240    -1.8425941    -1.2553935
H           7.7294810    -1.9923537    -2.0597811
28
181_C11H15NO_0-5-6-23 (0,) energy =    -558.1818179
N           2.0498918    -1.7845724    -0.1780226
C           2.7521620    -2.9418115    -0.7317217
H           3.0027746    -3.6575095     0.0602666
H           3.6702129    -2.6489305    -1.2322317
H           2.1074528    -3.4493599    -1.4639909
C           2.3055237    -0.4691183    -0.5189355
C           3.7528864     0.0783600    -0.6906448
C           3.8746406     1.3457358     0.1891900
H           4.8278098     1.8453592    -0.0110002
H           3.8426013     1.0918413     1.2543181
H           3.0505517     2.0272054    -0.0266400
H           3.7827455     0.4219186    -1.7341453
O           1.3896807     0.3477587    -0.5566522
C           0.6695986    -2.0812990     0.2020847
H           0.6639860    -3.0070915     0.7867615
H           0.0209861    -2.2138502    -0.6755532
H           0.2696989    -1.2631131     0.8000013
C           7.2454101    -2.4267299    -0.0974757
H           8.1278149    -3.0428856     0.0524801
C           6.3616557    -2.1929142     0.9593888
H           6.5558388    -2.6276645     1.9366166
C           5.2307399    -1.4006494     0.7681364
H           4.5469662    -1.2312475     1.5958208
C           4.9516753    -0.8322485    -0.4852499
C           5.8525759    -1.0663684    -1.5328563
H           5.6628864    -0.6230407    -2.5083142
C           6.9877976    -1.8582995    -1.3448485
H           7.6709519    -2.0263200    -2.1734367
28
181_C11H15NO_0-5-6-23 (15,) energy =    -558.1828645
N           2.0420804    -1.7207007    -0.6138861
C           2.6693491    -2.6566382     0.3133946
H           1.9523710    -2.9423306     1.0967489
H           3.5412120    -2.2180947     0.7902216
H           2.9855877    -3.5661159    -0.2115701
C           2.2999939    -0.3688991    -0.6741693
C           3.7132929     0.2250498    -0.3992777
C           3.6073742     1.1548464     0.8249433
H           4.5142360     1.7575889     0.9395832
H           3.4520535     0.5941124     1.7545582
H           2.7570822     1.8269735     0.6892515
H           3.8285949     0.8779121    -1.2735682
O           1.4409736     0.4164384    -1.0676660
C           0.7299576    -2.1520196    -1.0881620
H          -0.0344374    -2.0741611    -0.3017512
H           0.7997128    -3.1976730    -1.4063120
H           0.4226313    -1.5272885    -1.9257933
C           7.1831100    -2.3919554    -0.5075376
H           8.0529567    -3.0417692    -0.5512223
C           6.9066596    -1.6615956     0.6468803
H           7.5632214    -1.7368252     1.5099508
C           5.7893752    -0.8230854     0.7024291
H           5.5992157    -0.2607198     1.6110458
C           4.9216127    -0.7040113    -0.3914527
C           5.2228018    -1.4361566    -1.5523679
H           4.5693979    -1.3490582    -2.4174461
C           6.3347062    -2.2733280    -1.6116040
H           6.5435064    -2.8292544    -2.5220784
28
181_C11H15NO_0-5-6-23 (30,) energy =    -558.1848225
N           2.0020881    -1.7161682    -0.6137599
C           2.5653425    -2.5503610     0.4394500
H           1.8158977    -2.7245046     1.2254798
H           3.4374016    -2.0848778     0.8903091
H           2.8692968    -3.5236495     0.0349553
C           2.3005853    -0.3896434    -0.8267356
C           3.6654404     0.2175013    -0.4010194
C           3.4536765     1.0245252     0.8950662
H           4.3231309     1.6531636     1.1138502
H           3.2763248     0.3773240     1.7623473
H           2.5841687     1.6761717     0.7740420
H           3.8216752     0.9518101    -1.1998974
O           1.5185621     0.3470640    -1.4233541
C           0.7355847    -2.2043297    -1.1489905
H          -0.0819392    -2.0929942    -0.4219935
H           0.8407345    -3.2668418    -1.3944588
H           0.4803865    -1.6369662    -2.0427165
C           7.1736476    -2.3480901    -0.5320771
H           8.0539428    -2.9831870    -0.5823798
C           6.9009056    -1.6117220     0.6191183
H           7.5704050    -1.6673123     1.4737083
C           5.7689973    -0.7934912     0.6829750
H           5.5813580    -0.2276922     1.5900578
C           4.8845379    -0.6996081    -0.3996175
C           5.1799139    -1.4396649    -1.5569216
H           4.5136011    -1.3742439    -2.4138942
C           6.3062242    -2.2566681    -1.6238957
H           6.5103258    -2.8195848    -2.5311159
28
181_C11H15NO_0-5-6-23 (45,) energy =    -558.1864322
N           1.9678966    -1.7155770    -0.5958416
C           2.4814968    -2.4828665     0.5278240
H           1.7563147    -2.4938636     1.3553246
H           3.4221763    -2.0771815     0.8898912
H           2.6589270    -3.5207684     0.2197743
C           2.3518404    -0.4422395    -0.9482776
C           3.6654775     0.1736068    -0.4012939
C           3.3843960     0.8685300     0.9452256
H           4.2256069     1.5050137     1.2393310
H           3.1993756     0.1559831     1.7568942
H           2.5011048     1.5067506     0.8467526
H           3.8401975     0.9721767    -1.1308211
O           1.6797249     0.2339696    -1.7243561
C           0.7261033    -2.2309028    -1.1600477
H          -0.1048127    -2.1418237    -0.4451911
H           0.8535359    -3.2905291    -1.4106579
H           0.4812548    -1.6601294    -2.0540450
C           7.2079326    -2.3386889    -0.6158016
H           8.0968875    -2.9595680    -0.6868760
C           6.9257553    -1.6449855     0.5593435
H           7.5960866    -1.7196393     1.4118464
C           5.7820319    -0.8458663     0.6505149
H           5.5864793    -0.3130462     1.5759160
C           4.8972210    -0.7281705    -0.4291641
C           5.2002228    -1.4265751    -1.6098209
H           4.5332405    -1.3395805    -2.4644728
C           6.3383148    -2.2243361    -1.7037480
H           6.5492794    -2.7548915    -2.6286916
28
181_C11H15NO_0-5-6-23 (60,) energy =    -558.1873350
N           1.8699338    -1.6168929    -0.5329579
C           2.3686586    -2.3438861     0.6216919
H           1.6519463    -2.2945423     1.4543233
H           3.3267870    -1.9552432     0.9553110
H           2.5102999    -3.4011472     0.3615035
C           2.3833711    -0.4547890    -1.0587667
C           3.6348339     0.2031445    -0.4260186
C           3.2901274     0.8788205     0.9139605
H           4.1060050     1.5344262     1.2366484
H           3.0955791     0.1632412     1.7194383
H           2.3963662     1.4989961     0.7922013
H           3.8268758     1.0122195    -1.1393105
O           1.8617055     0.0959171    -2.0268286
C           0.6656132    -2.1782891    -1.1306810
H          -0.1564799    -2.1907052    -0.4019430
H           0.8499966    -3.2100939    -1.4575861
H           0.3850070    -1.5651928    -1.9852268
C           7.2107302    -2.2673376    -0.5584386
H           8.1076429    -2.8786956    -0.6093993
C           6.8936196    -1.5780872     0.6105569
H           7.5442222    -1.6474147     1.4786405
C           5.7394657    -0.7915431     0.6754025
H           5.5153879    -0.2622240     1.5966091
C           4.8809085    -0.6815496    -0.4257537
C           5.2172379    -1.3758797    -1.5997181
H           4.5706153    -1.2914394    -2.4702373
C           6.3658726    -2.1612199    -1.6665067
H           6.6041176    -2.6889728    -2.5864011
28
181_C11H15NO_0-5-6-23 (75,) energy =    -558.1872561
N           1.7880667    -1.5789555    -0.4267976
C           2.2697757    -2.2998612     0.7403213
H           1.6153326    -2.1369931     1.6081549
H           3.2848717    -2.0065033     0.9968601
H           2.2828712    -3.3767843     0.5256765
C           2.4384866    -0.5560288    -1.0748570
C           3.6504337     0.1374196    -0.4052531
C           3.3095106     0.7835990     0.9478801
H           4.1183614     1.4518269     1.2629729
H           3.1427009     0.0602611     1.7511771
H           2.4017332     1.3878218     0.8498736
H           3.8231992     0.9629942    -1.1045989
O           2.0500505    -0.1396555    -2.1651019
C           0.5884209    -2.1358566    -1.0383302
H          -0.2035580    -2.2276194    -0.2846031
H           0.7858112    -3.1337781    -1.4546172
H           0.2652583    -1.4736352    -1.8396646
C           7.2646753    -2.2700681    -0.6357311
H           8.1702588    -2.8661656    -0.7094427
C           6.9187817    -1.6622888     0.5696370
H           7.5549651    -1.7806172     1.4431211
C           5.7537667    -0.8947181     0.6640986
H           5.5066706    -0.4263231     1.6122126
C           4.9155856    -0.7223532    -0.4443664
C           5.2786212    -1.3359450    -1.6548573
H           4.6428027    -1.2025591    -2.5267444
C           6.4380158    -2.1022542    -1.7500873
H           6.6990037    -2.5670353    -2.6973902
28
181_C11H15NO_0-5-6-23 (90,) energy =    -558.1858215
N           1.7087524    -1.5415603    -0.3518355
C           2.1469624    -2.2428528     0.8481097
H           1.5224681    -1.9880053     1.7146613
H           3.1874285    -2.0189817     1.0759691
H           2.0751895    -3.3265743     0.6850741
C           2.4987156    -0.6945947    -1.0938976
C           3.6630961     0.0671965    -0.4132531
C           3.3172488     0.7237610     0.9317746
H           4.1037769     1.4330447     1.2121121
H           3.1994953     0.0182167     1.7580532
H           2.3818584     1.2852939     0.8401394
H           3.7992604     0.8903286    -1.1244163
O           2.2435325    -0.4544238    -2.2724143
C           0.5305820    -2.1090775    -0.9971334
H          -0.2572512    -2.2459055    -0.2479254
H           0.7506249    -3.0841339    -1.4552118
H           0.1891876    -1.4297551    -1.7768318
C           7.3708938    -2.1972987    -0.6495998
H           8.2987046    -2.7583870    -0.7224035
C           6.9688149    -1.6573511     0.5703535
H           7.5826973    -1.7941665     1.4570310
C           5.7754036    -0.9342706     0.6623742
H           5.4857007    -0.5157199     1.6217248
C           4.9657721    -0.7382499    -0.4632444
C           5.3830724    -1.2853686    -1.6881009
H           4.7647576    -1.1385024    -2.5694389
C           6.5712060    -2.0068127    -1.7799257
H           6.8756105    -2.4195873    -2.7383271
28
181_C11H15NO_0-5-6-23 (105,) energy =    -558.1830326
N           1.5990045    -1.5207406    -0.3152548
C           1.9215317    -2.1743209     0.9502090
H           1.2997939    -1.7973462     1.7722776
H           2.9722137    -2.0388122     1.2026303
H           1.7477211    -3.2546629     0.8579766
C           2.5336768    -0.8635636    -1.0854051
C           3.6609492    -0.0434237    -0.4039216
C           3.3199500     0.6257334     0.9355602
H           4.0711918     1.3901742     1.1625568
H           3.2816572    -0.0557761     1.7882630
H           2.3471204     1.1229400     0.8665743
H           3.7487435     0.7781101    -1.1258912
O           2.4125005    -0.7954617    -2.3061477
C           0.4403887    -2.0757979    -1.0076707
H          -0.3932570    -2.1447218    -0.3006654
H           0.6456473    -3.0782603    -1.4098267
H           0.1696107    -1.4229929    -1.8367031
C           7.4758514    -2.1221234    -0.6683771
H           8.4298208    -2.6370160    -0.7453433
C           7.0167010    -1.6720202     0.5676511
H           7.6110589    -1.8333967     1.4634885
C           5.7900747    -1.0077146     0.6637837
H           5.4580279    -0.6575557     1.6366380
C           5.0040486    -0.7799941    -0.4726688
C           5.4783033    -1.2368815    -1.7135245
H           4.8742541    -1.0710753    -2.6003641
C           6.6994248    -1.9006233    -1.8091668
H           7.0479145    -2.2440766    -2.7798772
28
181_C11H15NO_0-5-6-23 (120,) energy =    -558.1796687
N           1.5322584    -1.5042215    -0.2785901
C           1.6799844    -2.0095934     1.0840206
H           1.0319656    -1.4748792     1.7899103
H           2.7127020    -1.9330228     1.4190069
H           1.4101640    -3.0735743     1.1094238
C           2.5893964    -1.0420574    -1.0344622
C           3.6922546    -0.1494272    -0.3928193
C           3.3873686     0.5483419     0.9411849
H           4.0863465     1.3807942     1.0773987
H           3.4743829    -0.0897022     1.8232021
H           2.3727452     0.9590945     0.9290460
H           3.7042442     0.6585703    -1.1361723
O           2.5881570    -1.1689146    -2.2556688
C           0.4015652    -2.0690611    -1.0100870
H          -0.4908359    -2.0055012    -0.3785365
H           0.5708675    -3.1214831    -1.2787420
H           0.2454416    -1.5033553    -1.9280235
C           7.6078086    -2.0151314    -0.7639319
H           8.5862589    -2.4771636    -0.8659097
C           7.0987838    -1.7149811     0.4980112
H           7.6782682    -1.9422474     1.3893129
C           5.8416262    -1.1174176     0.6259432
H           5.4722870    -0.8854100     1.6203953
C           5.0723466    -0.8075374    -0.5027215
C           5.5974806    -1.1125986    -1.7689891
H           5.0044772    -0.8910186    -2.6499525
C           6.8493603    -1.7110292    -1.8971518
H           7.2356419    -1.9375388    -2.8877066
28
181_C11H15NO_0-5-6-23 (135,) energy =    -558.1771232
N           1.4725315    -1.5507428    -0.2107112
C           1.3920860    -1.6454208     1.2424452
H           0.5476347    -1.0603660     1.6284956
H           2.3043562    -1.2943369     1.7150123
H           1.2442562    -2.6930430     1.5418393
C           2.6309135    -1.3138849    -0.9273472
C           3.6832670    -0.2561877    -0.4764252
C           3.4877596     0.5961084     0.7899400
H           4.1336663     1.4780636     0.7175904
H           3.7654839     0.0810736     1.7141205
H           2.4545762     0.9457364     0.8839944
H           3.5843205     0.4468349    -1.3140009
O           2.7747380    -1.7855199    -2.0498798
C           0.4392808    -2.3208644    -0.8994625
H          -0.5288672    -2.0945372    -0.4399167
H           0.6193628    -3.4030646    -0.8282462
H           0.4232490    -2.0467327    -1.9534743
C           7.6720790    -1.9360756    -0.8216566
H           8.6709128    -2.3551488    -0.9099235
C           6.9118981    -2.1672505     0.3259944
H           7.3150829    -2.7706226     1.1353632
C           5.6311151    -1.6254477     0.4380698
H           5.0512982    -1.8190897     1.3379408
C           5.0861740    -0.8448509    -0.5906107
C           5.8556187    -0.6285122    -1.7391542
H           5.4406405    -0.0406150    -2.5534602
C           7.1382123    -1.1656616    -1.8553334
H           7.7189386    -0.9834291    -2.7558627
28
181_C11H15NO_0-5-6-23 (150,) energy =    -558.1783635
N           1.4794029    -1.6836722    -0.0003098
C           0.6754057    -0.5084947     0.3326991
H          -0.2464581    -0.5070575    -0.2658205
H           1.2094338     0.4129791     0.1040819
H           0.3938756    -0.5008721     1.3930935
C           2.6649768    -1.6003244    -0.7178619
C           3.6907738    -0.4902491    -0.3565832
C           3.6684729    -0.0306166     1.1239944
H           4.5034646     0.6552562     1.2984525
H           3.7979406    -0.8874054     1.7928823
H           2.7518806     0.4852214     1.4152501
H           3.4805982     0.3775660    -0.9974731
O           2.9622983    -2.4728505    -1.5237951
C           0.6843896    -2.8894863    -0.2193612
H           0.1067339    -2.8411346    -1.1537134
H          -0.0096814    -3.0051811     0.6196858
H           1.3437548    -3.7554315    -0.2727578
C           7.7818518    -1.7314054    -1.1077823
H           8.8129673    -2.0286185    -1.2797830
C           6.9410613    -2.5275399    -0.3255463
H           7.3158055    -3.4499807     0.1106335
C           5.6181855    -2.1498201    -0.1059118
H           4.9724764    -2.7893445     0.4893761
C           5.1075278    -0.9691813    -0.6627151
C           5.9574761    -0.1826847    -1.4467334
H           5.5776563     0.7350665    -1.8912194
C           7.2848206    -0.5568963    -1.6700251
H           7.9255189     0.0693205    -2.2856084
28
181_C11H15NO_0-5-6-23 (165,) energy =    -558.1823745
N           1.4295750    -1.6424744    -0.0229478
C           0.7080606    -0.3834050     0.1296672
H          -0.1108881    -0.3256083    -0.6019417
H           1.3611459     0.4713188    -0.0404942
H           0.2724105    -0.2969511     1.1332948
C           2.6959176    -1.7368782    -0.5779647
C           3.7091698    -0.6020046    -0.2715951
C           3.6946123    -0.1806257     1.2219153
H           4.4511825     0.5927401     1.3894601
H           3.9477882    -1.0345851     1.8583549
H           2.7317617     0.2098234     1.5579775
H           3.4431809     0.2707972    -0.8837022
O           3.0373605    -2.7507052    -1.1745158
C           0.5615163    -2.8063186    -0.1709127
H           0.0441812    -2.8137670    -1.1413926
H          -0.1891005    -2.7881953     0.6265511
H           1.1590411    -3.7140098    -0.0959393
C           7.8235468    -1.6307716    -1.1841597
H           8.8611210    -1.8736929    -1.3978328
C           7.0530218    -2.4789836    -0.3845404
H           7.4892037    -3.3876808     0.0223990
C           5.7217337    -2.1728636    -0.1099658
H           5.1300288    -2.8529490     0.4943197
C           5.1328241    -1.0110220    -0.6285026
C           5.9136284    -0.1723215    -1.4312191
H           5.4724029     0.7321124    -1.8457230
C           7.2487492    -0.4747832    -1.7093849
H           7.8342034     0.1922277    -2.3370463
28
181_C11H15NO_0-5-6-23 (180,) energy =    -558.1857558
N           1.4419014    -1.6409976    -0.0855657
C           0.7851713    -0.3437238    -0.0192637
H           0.0708762    -0.2335252    -0.8483330
H           1.5013640     0.4729616    -0.0848524
H           0.2274883    -0.2394617     0.9207713
C           2.7648910    -1.8520322    -0.4280776
C           3.7615651    -0.6935231    -0.1750946
C           3.7569627    -0.2874677     1.3228647
H           4.4696967     0.5270433     1.4872709
H           4.0675957    -1.1326465     1.9454193
H           2.7740270     0.0397267     1.6721767
H           3.4496942     0.1756726    -0.7679557
O           3.1448203    -2.9551307    -0.8042631
C           0.5246473    -2.7686519    -0.2004610
H           0.0047613    -2.7705216    -1.1696674
H          -0.2262492    -2.7044719     0.5954283
H           1.0885088    -3.6953025    -0.1076621
C           7.8607600    -1.5632849    -1.2924359
H           8.8941556    -1.7656141    -1.5616829
C           7.1807355    -2.4164990    -0.4197939
H           7.6836127    -3.2892432    -0.0110884
C           5.8550762    -2.1620307    -0.0728000
H           5.3329572    -2.8457983     0.5873693
C           5.1816341    -1.0468318    -0.5919170
C           5.8730599    -0.2017417    -1.4675323
H           5.3662385     0.6675468    -1.8825130
C           7.2015071    -0.4531136    -1.8178172
H           7.7163869     0.2179521    -2.5005832
