28
181_C11H15NO_1-0-5-6 (-165,) energy =    -558.1859301
N           2.0464394    -1.8554400    -0.7438290
C           1.3400168    -2.9272236    -1.4359092
H           1.9509181    -3.8414028    -1.4526684
H           1.1341781    -2.6062941    -2.4555021
H           0.3969727    -3.1528066    -0.9231828
C           2.5867198    -0.8408912    -1.5029439
C           3.6291382     0.1289614    -0.8909206
C           2.9784750     1.1666108     0.0428065
H           3.6862981     1.9685779     0.2786120
H           2.6258805     0.7431994     0.9889117
H           2.1184125     1.6201677    -0.4598682
H           3.9403138     0.6821129    -1.7838787
O           2.2781420    -0.6939085    -2.6837124
C           2.3965351    -2.1709237     0.6319505
H           3.0850977    -3.0263848     0.6843957
H           1.4849428    -2.4306680     1.1848414
H           2.8681772    -1.3281053     1.1289379
C           7.2348887    -1.8597507     0.5032678
H           8.1427429    -2.3569131     0.8341233
C           6.6260385    -0.8963472     1.3057820
H           7.0588420    -0.6365679     2.2685190
C           5.4579014    -0.2576222     0.8796730
H           5.0023978     0.4901335     1.5219984
C           4.8776475    -0.5695094    -0.3557358
C           5.5061478    -1.5361571    -1.1578293
H           5.0786550    -1.7799473    -2.1280011
C           6.6687678    -2.1769173    -0.7341552
H           7.1364162    -2.9215502    -1.3731624
28
181_C11H15NO_1-0-5-6 (-150,) energy =    -558.1826400
N           2.0257192    -1.8246463    -0.7222343
C           1.5594323    -3.0047157    -1.4429688
H           2.3206195    -3.7980905    -1.4061988
H           1.3641813    -2.7271720    -2.4775940
H           0.6371547    -3.3902536    -0.9919493
C           2.5096135    -0.7664751    -1.4665314
C           3.6054732     0.1727749    -0.8950241
C           3.0284056     1.2649871     0.0252298
H           3.7834798     2.0311953     0.2318650
H           2.6698816     0.8833745     0.9868937
H           2.1854005     1.7529439    -0.4740004
H           3.9198142     0.6902193    -1.8078134
O           2.1532526    -0.5973657    -2.6296427
C           2.3640034    -2.0873995     0.6683058
H           3.1885708    -2.8080276     0.7633805
H           1.4829224    -2.5039511     1.1719579
H           2.6452419    -1.1740538     1.1869815
C           7.1375687    -1.9560218     0.4741073
H           8.0268700    -2.4887283     0.7999393
C           6.5557706    -0.9907212     1.2943533
H           6.9904191    -0.7654171     2.2649161
C           5.4115422    -0.3056975     0.8758015
H           4.9762922     0.4423049     1.5316698
C           4.8295770    -0.5714962    -0.3692057
C           5.4318133    -1.5399667    -1.1892561
H           5.0031789    -1.7479321    -2.1673975
C           6.5698863    -2.2281445    -0.7734395
H           7.0178075    -2.9730767    -1.4260960
28
181_C11H15NO_1-0-5-6 (-135,) energy =    -558.1775558
N           1.9884226    -1.8018357    -0.6961426
C           1.7911392    -3.0523846    -1.4246642
H           2.6816377    -3.6924564    -1.3311871
H           1.6070500    -2.8228902    -2.4734945
H           0.9286738    -3.5978442    -1.0236098
C           2.4369711    -0.7085552    -1.4251031
C           3.5741794     0.2077951    -0.8907289
C           3.0628216     1.3333437     0.0284552
H           3.8511981     2.0740023     0.2015685
H           2.7208582     0.9788240     1.0062533
H           2.2229418     1.8437664    -0.4532234
H           3.8807184     0.7019639    -1.8187031
O           2.0468877    -0.5279436    -2.5738413
C           2.2925238    -2.0034017     0.7136738
H           3.2031618    -2.5988550     0.8692038
H           1.4516315    -2.5331397     1.1779560
H           2.4072693    -1.0509239     1.2283624
C           7.0557119    -2.0341100     0.4227374
H           7.9316137    -2.5962328     0.7351418
C           6.4940079    -1.0798178     1.2696035
H           6.9309965    -0.8928503     2.2472200
C           5.3670462    -0.3567330     0.8687516
H           4.9474039     0.3817621     1.5450746
C           4.7828094    -0.5724783    -0.3848034
C           5.3661610    -1.5293072    -1.2320017
H           4.9368504    -1.6971243    -2.2175935
C           6.4864475    -2.2561704    -0.8339704
H           6.9199771    -2.9909028    -1.5075430
28
181_C11H15NO_1-0-5-6 (-120,) energy =    -558.1712318
N           1.9073861    -1.7723702    -0.7049108
C           2.0451573    -3.0863901    -1.3332099
H           3.0244685    -3.5308961    -1.0975784
H           1.9395252    -2.9770043    -2.4126420
H           1.2600265    -3.7606435    -0.9716027
C           2.3796278    -0.6836203    -1.4475593
C           3.5116462     0.2449402    -0.9174159
C           3.0370572     1.3661638     0.0256570
H           3.8420010     2.0929444     0.1812878
H           2.7215312     1.0098564     1.0106007
H           2.1917812     1.8949517    -0.4262978
H           3.8053614     0.7481676    -1.8445837
O           2.0451905    -0.5611300    -2.6186784
C           2.0633198    -1.8316695     0.7437693
H           3.0469625    -2.2064251     1.0617167
H           1.2961374    -2.5059178     1.1424685
H           1.8959362    -0.8511384     1.1896070
C           6.9956595    -2.0448408     0.3055447
H           7.8726934    -2.6176014     0.5945723
C           6.4171212    -1.1451391     1.1996906
H           6.8424345    -1.0119616     2.1911228
C           5.2892065    -0.4076044     0.8285792
H           4.8571569     0.2891580     1.5402819
C           4.7212750    -0.5546809    -0.4426319
C           5.3204587    -1.4577769    -1.3366908
H           4.9031369    -1.5714506    -2.3348472
C           6.4420508    -2.1982407    -0.9680537
H           6.8889805    -2.8893150    -1.6780178
28
181_C11H15NO_1-0-5-6 (-105,) energy =    -558.1696430
N           2.2240770    -1.9995464    -0.6619447
C           1.0483585    -1.9704717    -1.5477524
H           0.8424244    -2.9866364    -1.8990619
H           1.2531148    -1.3453965    -2.4246117
H           0.1504555    -1.5797811    -1.0420063
C           2.5842548    -0.6530858    -0.2782355
C           3.8253189    -0.1216106    -0.9945858
C           3.8876286     1.4129390    -0.9798504
H           4.8053963     1.7619026    -1.4637223
H           3.8660140     1.7949607     0.0439982
H           3.0302181     1.8407938    -1.5113009
H           3.7866978    -0.4823194    -2.0294852
O           2.0526214    -0.0610801     0.6392958
C           1.9299199    -2.8238814     0.5226179
H           1.7513924    -3.8503444     0.1860875
H           1.0535756    -2.4741026     1.0877412
H           2.7984471    -2.8240058     1.1866008
C           7.3225811    -1.9089679     0.8564013
H           8.2031265    -2.3483878     1.3173842
C           6.4462526    -1.1311634     1.6158686
H           6.6403857    -0.9649034     2.6723193
C           5.3162472    -0.5657073     1.0244089
H           4.6323155     0.0287549     1.6243381
C           5.0460168    -0.7674807    -0.3369334
C           5.9259812    -1.5567134    -1.0867535
H           5.7227350    -1.7290993    -2.1408980
C           7.0584272    -2.1207418    -0.4975729
H           7.7323432    -2.7273772    -1.0969647
28
181_C11H15NO_1-0-5-6 (-90,) energy =    -558.1749594
N           2.1797658    -2.0071827    -0.5480333
C           1.1759416    -1.9699906    -1.6233320
H           1.0041054    -2.9858426    -1.9933909
H           1.5369930    -1.3620693    -2.4598257
H           0.2163133    -1.5537429    -1.2777456
C           2.6014011    -0.7006621    -0.1572449
C           3.8076999    -0.1707031    -0.9403211
C           3.8443320     1.3658884    -0.9582408
H           4.7433871     1.7210633    -1.4717213
H           3.8424561     1.7644419     0.0594990
H           2.9668598     1.7699794    -1.4761201
H           3.7423615    -0.5463548    -1.9683134
O           2.1996561    -0.1533838     0.8538925
C           1.6612060    -2.7818116     0.5895702
H           1.4874620    -3.8077843     0.2493431
H           0.7243660    -2.3754565     0.9969054
H           2.4068483    -2.7964095     1.3874415
C           7.4235511    -1.8408885     0.7883051
H           8.3345543    -2.2505849     1.2164239
C           6.5508763    -1.0898950     1.5785503
H           6.7790937    -0.9151767     2.6268414
C           5.3814999    -0.5627549     1.0302409
H           4.6988340     0.0073463     1.6539101
C           5.0667978    -0.7771319    -0.3193457
C           5.9443602    -1.5380659    -1.1007911
H           5.7091847    -1.7182585    -2.1472056
C           7.1159826    -2.0641631    -0.5543473
H           7.7861334    -2.6499704    -1.1782460
28
181_C11H15NO_1-0-5-6 (-75,) energy =    -558.1806810
N           2.1112557    -1.9910493    -0.4505863
C           1.3043064    -2.0102098    -1.6769784
H           1.1957555    -3.0416800    -2.0278600
H           1.7903192    -1.4330568    -2.4683902
H           0.2997876    -1.5919171    -1.5082831
C           2.6072609    -0.7314965    -0.0577575
C           3.7887854    -0.2036932    -0.8863020
C           3.8046116     1.3341688    -0.9140941
H           4.6844362     1.6979752    -1.4541432
H           3.8260249     1.7362298     0.1019683
H           2.9079955     1.7246727    -1.4095551
H           3.7040521    -0.5784207    -1.9122663
O           2.2990574    -0.2133434     1.0046120
C           1.4242860    -2.7079101     0.6301410
H           1.2545505    -3.7381816     0.3013927
H           0.4587368    -2.2536160     0.8955507
H           2.0547565    -2.7138792     1.5204955
C           7.4925306    -1.8058888     0.7173506
H           8.4254682    -2.1989127     1.1127098
C           6.6294500    -1.0794619     1.5406454
H           6.8877653    -0.9076098     2.5824430
C           5.4318871    -0.5735103     1.0352090
H           4.7554372    -0.0253100     1.6840787
C           5.0777317    -0.7857155    -0.3049321
C           5.9468664    -1.5207599    -1.1200941
H           5.6836818    -1.6973593    -2.1606988
C           7.1467096    -2.0258260    -0.6162529
H           7.8086277    -2.5922159    -1.2663726
28
181_C11H15NO_1-0-5-6 (-60,) energy =    -558.1851664
N           2.0500645    -1.9752133    -0.3786097
C           1.4485984    -2.1219851    -1.7051732
H           1.4070925    -3.1826141    -1.9751365
H           2.0368930    -1.6033107    -2.4639113
H           0.4238617    -1.7202378    -1.7270201
C           2.6119709    -0.7544916    -0.0015169
C           3.7749627    -0.2276364    -0.8608556
C           3.7743424     1.3113237    -0.8849312
H           4.6390502     1.6842833    -1.4428536
H           3.8134558     1.7090880     0.1320704
H           2.8635651     1.6942312    -1.3602325
H           3.6777059    -0.5921527    -1.8880016
O           2.3559038    -0.2376146     1.0790857
C           1.2398057    -2.6174402     0.6589970
H           1.0840449    -3.6633198     0.3759460
H           0.2604682    -2.1334323     0.7857582
H           1.7672284    -2.5716695     1.6118197
C           7.5431793    -1.7813737     0.6374623
H           8.4919873    -2.1615861     1.0067216
C           6.6797201    -1.0954497     1.4945203
H           6.9531015    -0.9422339     2.5354370
C           5.4615973    -0.6052771     1.0242271
H           4.7851551    -0.0889973     1.6983627
C           5.0860285    -0.7936714    -0.3138193
C           5.9569209    -1.4872917    -1.1630075
H           5.6795921    -1.6434925    -2.2034274
C           7.1774976    -1.9768211    -0.6945375
H           7.8397139    -2.5113318    -1.3708808
28
181_C11H15NO_1-0-5-6 (-45,) energy =    -558.1881861
N           2.0416276    -1.9045957    -0.2527031
C           1.7423969    -2.3238182    -1.6191144
H           1.7564873    -3.4176613    -1.6743854
H           2.4832808    -1.9468445    -2.3234872
H           0.7470193    -1.9782828    -1.9377185
C           2.5691690    -0.6604660     0.0570962
C           3.7373543    -0.1316384    -0.7983695
C           3.7787328     1.4063806    -0.7425151
H           4.6314531     1.7811066    -1.3176793
H           3.8684668     1.7512400     0.2898003
H           2.8609867     1.8356276    -1.1602194
H           3.6119785    -0.4242712    -1.8448901
O           2.2586889    -0.0807760     1.0935515
C           1.1044416    -2.4545824     0.7270434
H           1.0555226    -3.5397374     0.5919389
H           0.0931322    -2.0379457     0.6110998
H           1.4552997    -2.2220332     1.7315766
C           7.4838685    -1.8518774     0.5628152
H           8.4268814    -2.2739555     0.8999943
C           6.6262231    -1.2292652     1.4727219
H           6.8992766    -1.1673169     2.5230900
C           5.4159976    -0.6860392     1.0426838
H           4.7456566    -0.2148882     1.7556815
C           5.0416843    -0.7569446    -0.3071503
C           5.9069139    -1.3866318    -1.2099408
H           5.6320323    -1.4484769    -2.2610505
C           7.1201127    -1.9291206    -0.7816660
H           7.7783705    -2.4121184    -1.4993768
28
181_C11H15NO_1-0-5-6 (-30,) energy =    -558.1909972
N           2.0492892    -1.8450285    -0.0910306
C           2.1777133    -2.5552671    -1.3581695
H           2.0810246    -3.6292467    -1.1702730
H           3.1591773    -2.3914819    -1.8036743
H           1.3982457    -2.2647881    -2.0791136
C           2.4625716    -0.5387216     0.0845923
C           3.6508305    -0.0411714    -0.7662044
C           3.7770072     1.4877987    -0.6458145
H           4.6108397     1.8416998    -1.2609430
H           3.9537063     1.7819817     0.3910890
H           2.8582051     1.9806972    -0.9790348
H           3.4635759    -0.2756669    -1.8209080
O           1.9991890     0.1656521     0.9771311
C           0.9516399    -2.3080428     0.7542512
H           1.0602998    -3.3843865     0.9239772
H          -0.0286216    -2.1235092     0.2901384
H           0.9884478    -1.7756537     1.7032026
C           7.3620374    -1.9630237     0.4010021
H           8.2963124    -2.4344444     0.6939913
C           6.4919936    -1.4622192     1.3727663
H           6.7478499    -1.5434425     2.4260706
C           5.2925375    -0.8579707     0.9989553
H           4.6174411    -0.4727306     1.7589152
C           4.9403775    -0.7441988    -0.3538804
C           5.8204891    -1.2484134    -1.3193920
H           5.5666154    -1.1591531    -2.3741024
C           7.0230647    -1.8537461    -0.9475546
H           7.6927038    -2.2384711    -1.7125248
28
181_C11H15NO_1-0-5-6 (-15,) energy =    -558.1926430
N           1.9036705    -1.7643502    -0.0698677
C           2.1525925    -2.5540185    -1.2674544
H           1.9897511    -3.6103144    -1.0298314
H           3.1853823    -2.4524267    -1.6010732
H           1.4759290    -2.2853093    -2.0928773
C           2.4260247    -0.5109362     0.1563280
C           3.5960318    -0.0446549    -0.7345340
C           3.7352956     1.4857686    -0.6510438
H           4.5638214     1.8194588    -1.2844350
H           3.9262890     1.8005929     0.3770333
H           2.8162596     1.9783660    -0.9849908
H           3.3828847    -0.3036905    -1.7781712
O           2.0363727     0.1930854     1.0856167
C           0.7736093    -2.1969121     0.7439598
H           0.9264762    -3.2320185     1.0710236
H          -0.1677838    -2.1472876     0.1777680
H           0.7004908    -1.5408710     1.6096602
C           7.3287601    -1.9511223     0.3939147
H           8.2682793    -2.4184194     0.6765370
C           6.4670732    -1.4550653     1.3752197
H           6.7348614    -1.5356110     2.4256171
C           5.2604379    -0.8557738     1.0154060
H           4.5920684    -0.4726693     1.7820357
C           4.8932701    -0.7430455    -0.3334890
C           5.7654487    -1.2427808    -1.3090844
H           5.4986886    -1.1542967    -2.3606900
C           6.9747797    -1.8426012    -0.9510504
H           7.6378598    -2.2236494    -1.7235433
28
181_C11H15NO_1-0-5-6 (0,) energy =    -558.1931614
N           1.8392798    -1.7208346    -0.1229729
C           2.1847708    -2.5761822    -1.2484264
H           2.0466400    -3.6220720    -0.9522166
H           3.2294076    -2.4556189    -1.5334912
H           1.5458282    -2.3867536    -2.1237886
C           2.4562973    -0.5342003     0.1907899
C           3.6104135    -0.0566770    -0.7137488
C           3.7366139     1.4749583    -0.6220307
H           4.5598013     1.8198222    -1.2564073
H           3.9279403     1.7838108     0.4076901
H           2.8122838     1.9617307    -0.9507663
H           3.3846992    -0.3121459    -1.7552819
O           2.1236040     0.1291319     1.1717440
C           0.6991245    -2.1535900     0.6742517
H           0.9029411    -3.1259642     1.1413023
H          -0.1948748    -2.2538220     0.0441657
H           0.5186061    -1.4092390     1.4481131
C           7.3789974    -1.9316030     0.3500689
H           8.3272578    -2.3915915     0.6150293
C           6.5203927    -1.4632708     1.3473140
H           6.7994619    -1.5580128     2.3935847
C           5.3024917    -0.8733557     1.0094130
H           4.6362594    -0.5115525     1.7878393
C           4.9211777    -0.7427762    -0.3340117
C           5.7901358    -1.2154021    -1.3263339
H           5.5125398    -1.1139714    -2.3739741
C           7.0102990    -1.8050175    -0.9894926
H           7.6705969    -2.1648331    -1.7744306
28
181_C11H15NO_1-0-5-6 (15,) energy =    -558.1929382
N           1.7690529    -1.5870852    -0.1425330
C           2.2001465    -2.5542563    -1.1393859
H           2.4119927    -3.5213817    -0.6622379
H           3.1073493    -2.2318703    -1.6451964
H           1.4132021    -2.7123390    -1.8891048
C           2.4609857    -0.4598128     0.2357669
C           3.6191457     0.0242951    -0.6602928
C           3.7619637     1.5522844    -0.5280160
H           4.5877246     1.9043628    -1.1550247
H           3.9589729     1.8314538     0.5090678
H           2.8421371     2.0568669    -0.8420526
H           3.3848554    -0.1978643    -1.7073097
O           2.1561541     0.1714028     1.2459362
C           0.6552546    -2.0258591     0.6882592
H           0.9394332    -2.8862858     1.3108891
H          -0.1845329    -2.3247962     0.0493767
H           0.3563588    -1.2037006     1.3363254
C           7.3684475    -1.9228934     0.3383099
H           8.3117663    -2.4013740     0.5876492
C           6.5219782    -1.4660270     1.3510015
H           6.8050601    -1.5884228     2.3933332
C           5.3105168    -0.8517765     1.0336133
H           4.6537617    -0.4990916     1.8240901
C           4.9232902    -0.6854745    -0.3043086
C           5.7802657    -1.1472318    -1.3118456
H           5.4978488    -1.0196089    -2.3553792
C           6.9941278    -1.7605628    -0.9959369
H           7.6450188    -2.1111297    -1.7928428
28
181_C11H15NO_1-0-5-6 (30,) energy =    -558.1920773
N           1.6965195    -1.7426759    -0.2480211
C           2.1949302    -2.7684686    -1.1557695
H           2.5478932    -3.6492564    -0.5994321
H           3.0231849    -2.3992351    -1.7579694
H           1.3915097    -3.0892409    -1.8294026
C           2.4642621    -0.6975105     0.2231991
C           3.6000562    -0.1709490    -0.6748931
C           3.7263527     1.3536915    -0.4929662
H           4.5392567     1.7373168    -1.1181526
H           3.9341870     1.5990731     0.5506255
H           2.7965801     1.8574734    -0.7785650
H           3.3469859    -0.3639316    -1.7231558
O           2.2060367    -0.1435754     1.2889592
C           0.5919489    -2.1853610     0.5978121
H           0.9147679    -2.9446098     1.3251658
H          -0.1889139    -2.6189405    -0.0360234
H           0.1962368    -1.3309585     1.1449375
C           7.3928359    -2.1048287     0.1782611
H           8.3467148    -2.5802691     0.3905087
C           6.5618558    -1.6973699     1.2239573
H           6.8671142    -1.8551830     2.2552323
C           5.3366749    -1.0869393     0.9541558
H           4.6925162    -0.7728169     1.7705649
C           4.9204857    -0.8753714    -0.3685089
C           5.7620729    -1.2884444    -1.4097569
H           5.4565705    -1.1269183    -2.4419856
C           6.9892836    -1.8972479    -1.1413504
H           7.6279487    -2.2096401    -1.9636282
28
181_C11H15NO_1-0-5-6 (45,) energy =    -558.1899780
N           1.6356494    -1.7223970    -0.3350611
C           2.1576819    -2.8215854    -1.1454680
H           2.4402870    -3.6785339    -0.5160720
H           3.0385086    -2.5118609    -1.7076300
H           1.3917091    -3.1533998    -1.8551271
C           2.4875226    -0.7892325     0.2366037
C           3.6102598    -0.2221171    -0.6534868
C           3.6872972     1.3035184    -0.4466213
H           4.4885944     1.7237088    -1.0631730
H           3.8857337     1.5376085     0.6015603
H           2.7425727     1.7821704    -0.7272386
H           3.3562624    -0.4090312    -1.7022875
O           2.2739814    -0.3235381     1.3510373
C           0.4851680    -2.1093792     0.4805903
H           0.7577588    -2.8292819     1.2660127
H          -0.2660649    -2.5663674    -0.1714594
H           0.0678587    -1.2245661     0.9604586
C           7.4578510    -2.0689803     0.1466580
H           8.4248282    -2.5240720     0.3438964
C           6.6474346    -1.6492625     1.2038378
H           6.9823785    -1.7784322     2.2298701
C           5.4059288    -1.0647394     0.9526219
H           4.7759738    -0.7458594     1.7779156
C           4.9518855    -0.8911118    -0.3633954
C           5.7723514    -1.3169660    -1.4162034
H           5.4380168    -1.1849094    -2.4436653
C           7.0160845    -1.8998882    -1.1659140
H           7.6377562    -2.2221376    -1.9973422
28
181_C11H15NO_1-0-5-6 (60,) energy =    -558.1862658
N           1.5878611    -1.6948145    -0.3895310
C           2.0630209    -2.8821483    -1.1075978
H           2.2465668    -3.7185114    -0.4167065
H           2.9936572    -2.6678110    -1.6369474
H           1.3120228    -3.1954730    -1.8404584
C           2.5361089    -0.9082896     0.2677663
C           3.6394211    -0.2976053    -0.6156704
C           3.6474393     1.2295466    -0.3945892
H           4.4261750     1.6912364    -1.0101928
H           3.8414915     1.4611143     0.6553113
H           2.6809090     1.6674425    -0.6682783
H           3.3872574    -0.4876426    -1.6640401
O           2.3889035    -0.5553293     1.4307032
C           0.3872156    -1.9822321     0.4000062
H           0.5768512    -2.7100322     1.2021025
H          -0.3773476    -2.3851352    -0.2716480
H           0.0232414    -1.0615030     0.8567987
C           7.5672802    -1.9908258     0.1274471
H           8.5541672    -2.4078781     0.3096886
C           6.7619320    -1.5950685     1.1977046
H           7.1206378    -1.7053858     2.2179341
C           5.4949419    -1.0583010     0.9678899
H           4.8679160    -0.7596780     1.8024671
C           5.0100250    -0.9104884    -0.3402297
C           5.8255552    -1.3129628    -1.4060906
H           5.4655528    -1.2011499    -2.4271840
C           7.0949306    -1.8475410    -1.1774361
H           7.7119392    -2.1522631    -2.0189406
28
181_C11H15NO_1-0-5-6 (75,) energy =    -558.1807969
N           1.5365192    -1.6704846    -0.4449497
C           1.8492750    -2.9267725    -1.1430016
H           1.9282138    -3.7690517    -0.4393052
H           2.7971164    -2.8384223    -1.6816742
H           1.0607107    -3.1495671    -1.8689545
C           2.6098691    -1.1152921     0.2811771
C           3.6887626    -0.4360761    -0.5782721
C           3.5718521     1.0863665    -0.3376015
H           4.3055753     1.6171569    -0.9526911
H           3.7572460     1.3214296     0.7137036
H           2.5708151     1.4458766    -0.6016555
H           3.4561621    -0.6263999    -1.6311724
O           2.5625470    -0.9568296     1.4912063
C           0.3117490    -1.8185182     0.3518628
H           0.3990414    -2.5957559     1.1243746
H          -0.5059908    -2.0805356    -0.3268983
H           0.0813685    -0.8732076     0.8457763
C           7.7275595    -1.8535060     0.1388835
H           8.7422468    -2.2025378     0.3115449
C           6.9211811    -1.4715124     1.2133495
H           7.3073598    -1.5254502     2.2281028
C           5.6190755    -1.0204339     0.9959474
H           4.9909158    -0.7388630     1.8346576
C           5.0981158    -0.9483214    -0.3048188
C           5.9149271    -1.3370529    -1.3747690
H           5.5273516    -1.2845983    -2.3905212
C           7.2196036    -1.7845085    -1.1584552
H           7.8359912    -2.0800008    -2.0037057
28
181_C11H15NO_1-0-5-6 (90,) energy =    -558.1742459
N           1.5041831    -1.6462098    -0.4987385
C           1.6089096    -2.9564130    -1.1642747
H           1.6100429    -3.7843926    -0.4386017
H           2.5312815    -3.0096619    -1.7523539
H           0.7623629    -3.0861795    -1.8460261
C           2.6814044    -1.3316683     0.2464005
C           3.7400551    -0.5760691    -0.5672385
C           3.4984484     0.9299103    -0.2988022
H           4.1914982     1.5278905    -0.8990493
H           3.6618648     1.1629884     0.7573791
H           2.4739252     1.2116023    -0.5657703
H           3.5348017    -0.7548541    -1.6284939
O           2.7250674    -1.4136843     1.4602469
C           0.2964253    -1.6190578     0.3422363
H           0.2797973    -2.4182383     1.0965768
H          -0.5739591    -1.7275946    -0.3128206
H           0.2329455    -0.6591307     0.8592467
C           7.8631656    -1.7023331     0.1710703
H           8.8996899    -1.9776617     0.3473941
C           7.0339153    -1.3592109     1.2409795
H           7.4237176    -1.3701432     2.2557320
C           5.7036191    -1.0019483     1.0196689
H           5.0610382    -0.7552841     1.8574596
C           5.1765198    -0.9873931    -0.2806904
C           6.0174893    -1.3365748    -1.3456306
H           5.6253935    -1.3289350    -2.3609085
C           7.3500057    -1.6898477    -1.1259724
H           7.9838202    -1.9561978    -1.9679999
28
181_C11H15NO_1-0-5-6 (105,) energy =    -558.1679903
N           1.5056612    -1.6526931    -0.5761918
C           1.4284290    -3.0092195    -1.1479248
H           1.3897166    -3.7873630    -0.3691353
H           2.2992759    -3.1986780    -1.7857921
H           0.5307512    -3.0841044    -1.7699264
C           2.7449137    -1.5029930     0.1589865
C           3.7808370    -0.6571198    -0.5847422
C           3.4479642     0.8237696    -0.2667962
H           4.1193943     1.4795148    -0.8298598
H           3.5788448     1.0314967     0.7997849
H           2.4160432     1.0577954    -0.5487401
H           3.6015538    -0.8006337    -1.6565746
O           2.8623619    -1.8444231     1.3173948
C           0.3438319    -1.4378115     0.3052846
H           0.2599106    -2.1903165     1.1023692
H          -0.5599298    -1.4683540    -0.3119176
H           0.4128465    -0.4494632     0.7681329
C           7.9424764    -1.5867470     0.1960969
H           8.9891121    -1.8122153     0.3830797
C           7.0857858    -1.2914487     1.2586058
H           7.4642198    -1.2897692     2.2776582
C           5.7421317    -0.9991442     1.0239076
H           5.0820432    -0.7902354     1.8581787
C           5.2292468    -1.0015617    -0.2820518
C           6.0984053    -1.3019094    -1.3390336
H           5.7169482    -1.3071489    -2.3582785
C           7.4440555    -1.5912802    -1.1066715
H           8.0994302    -1.8207492    -1.9430000
28
181_C11H15NO_1-0-5-6 (120,) energy =    -558.1720703
N           2.1073393    -2.3234994     0.1318981
C           0.6958556    -2.4878390    -0.2091976
H           0.1235102    -2.7889537     0.6762672
H           0.6009367    -3.2666788    -0.9660397
H           0.2714124    -1.5448229    -0.5889133
C           3.0313282    -2.6045656    -0.8802453
C           4.0172900    -1.5219891    -1.3960795
C           3.2555807    -0.2805823    -1.8833607
H           3.9279159     0.3765815    -2.4455287
H           2.8216537     0.3047798    -1.0678444
H           2.4453189    -0.5774126    -2.5574855
H           4.4328345    -2.0157374    -2.2811173
O           2.9370789    -3.6472015    -1.5145087
C           2.3361097    -1.2785897     1.1218409
H           1.8664072    -1.5837871     2.0650633
H           1.8995571    -0.3084871     0.8348100
H           3.4019368    -1.1464384     1.3042132
C           7.4412888    -0.8675068     1.2039052
H           8.3046736    -0.7191089     1.8467835
C           7.0644125    -2.1561477     0.8161218
H           7.6346187    -3.0170625     1.1553068
C           5.9584589    -2.3436523    -0.0098439
H           5.6734526    -3.3486048    -0.3129876
C           5.2002421    -1.2512906    -0.4639253
C           5.5899029     0.0347571    -0.0707571
H           5.0293651     0.9016324    -0.4069972
C           6.7010549     0.2252954     0.7561115
H           6.9852529     1.2332191     1.0476550
28
181_C11H15NO_1-0-5-6 (135,) energy =    -558.1785715
N           2.1209681    -2.2609263     0.0838999
C           0.7339199    -2.6748333    -0.1024323
H           0.3142554    -3.0538201     0.8374751
H           0.7003117    -3.4684580    -0.8480504
H           0.1210128    -1.8227166    -0.4337684
C           3.0180350    -2.5379300    -0.9385813
C           4.0281722    -1.4640760    -1.4210392
C           3.3033576    -0.1975684    -1.9013760
H           3.9954872     0.4467644    -2.4542199
H           2.8793513     0.3920653    -1.0835983
H           2.4898096    -0.4680695    -2.5825083
H           4.4441231    -1.9520992    -2.3092030
O           2.9159331    -3.5719556    -1.5902029
C           2.2777671    -1.1646846     1.0280388
H           1.9332990    -1.4966362     2.0155437
H           1.6818466    -0.2817160     0.7486932
H           3.3236533    -0.8750155     1.1183409
C           7.4346893    -0.9298947     1.2291983
H           8.2939908    -0.8117230     1.8837109
C           7.0057486    -2.2058366     0.8535585
H           7.5308063    -3.0867565     1.2137193
C           5.9052329    -2.3555472     0.0129359
H           5.5805654    -3.3510721    -0.2809880
C           5.2043320    -1.2371418    -0.4690016
C           5.6462757     0.0357503    -0.0877685
H           5.1312291     0.9217428    -0.4464112
C           6.7519050     0.1884986     0.7545272
H           7.0770412     1.1868192     1.0361928
28
181_C11H15NO_1-0-5-6 (150,) energy =    -558.1836647
N           2.1205330    -2.1882032     0.0348637
C           0.8022949    -2.8112021     0.0269070
H           0.5738244    -3.2491932     1.0067504
H           0.7929652    -3.5975082    -0.7263781
H           0.0304273    -2.0623482    -0.2031506
C           2.9781301    -2.4611945    -1.0121357
C           4.0218539    -1.4086746    -1.4646460
C           3.3441957    -0.1177570    -1.9515458
H           4.0656663     0.5119903    -2.4832440
H           2.9152472     0.4773412    -1.1400860
H           2.5402475    -0.3623130    -2.6534406
H           4.4417541    -1.8989863    -2.3498065
O           2.8535547    -3.4840167    -1.6807666
C           2.2458452    -1.0699092     0.9552447
H           1.9966308    -1.4121922     1.9676049
H           1.5579727    -0.2486225     0.7022286
H           3.2657187    -0.6903232     0.9744220
C           7.3847775    -0.9962759     1.2621925
H           8.2325275    -0.9080682     1.9362336
C           6.9121882    -2.2561667     0.8846427
H           7.3924875    -3.1548092     1.2630440
C           5.8262312    -2.3671661     0.0194320
H           5.4681114    -3.3506172    -0.2761883
C           5.1834247    -1.2246988    -0.4861181
C           5.6693865     0.0318340    -0.1037276
H           5.2003938     0.9354981    -0.4811101
C           6.7602993     0.1454619     0.7636430
H           7.1198657     1.1317225     1.0459510
28
181_C11H15NO_1-0-5-6 (165,) energy =    -558.1867285
N           2.0872674    -2.0150353    -0.8097652
C           1.0007537    -2.7931392    -1.3900855
H           1.2223761    -3.8675966    -1.3421957
H           0.8798009    -2.4971073    -2.4307393
H           0.0688925    -2.6098540    -0.8378168
C           2.7169655    -1.0763041    -1.5940027
C           3.6211370    -0.0008019    -0.9423792
C           2.8329881     0.9222751     0.0017521
H           3.4306327     1.8034537     0.2590468
H           2.5351651     0.4359419     0.9353885
H           1.9248152     1.2744072    -0.4982439
H           3.8890844     0.6019341    -1.8170581
O           2.5259920    -1.0257631    -2.8076823
C           2.3122629    -2.2397045     0.6080090
H           2.3953867    -3.3183854     0.7927088
H           1.4789362    -1.8585300     1.2166839
H           3.2393833    -1.7765578     0.9386163
C           7.4039953    -1.5874576     0.5014072
H           8.3558826    -1.9830105     0.8452891
C           6.6696431    -0.7205935     1.3084269
H           7.0468940    -0.4341714     2.2868590
C           5.4448896    -0.2111986     0.8658309
H           4.8921271     0.4656021     1.5104538
C           4.9331950    -0.5609198    -0.3899986
C           5.6867826    -1.4308488    -1.1956121
H           5.3086932    -1.7028767    -2.1783388
C           6.9063952    -1.9403586    -0.7560172
H           7.4714177    -2.6119021    -1.3973118
28
181_C11H15NO_1-0-5-6 (180,) energy =    -558.1873306
N           2.0600121    -1.9487263    -0.7886126
C           1.1622715    -2.9039984    -1.4247185
H           1.5843634    -3.9171967    -1.3782375
H           1.0267609    -2.6124874    -2.4647130
H           0.1910285    -2.9126584    -0.9127661
C           2.6321030    -0.9680429    -1.5637347
C           3.5921668     0.0673511    -0.9272841
C           2.8552458     1.0348145     0.0163640
H           3.4974555     1.8842840     0.2727443
H           2.5297299     0.5668503     0.9506004
H           1.9674466     1.4321127    -0.4860805
H           3.8751682     0.6538557    -1.8082543
O           2.3915407    -0.8807436    -2.7667648
C           2.2994410    -2.1890492     0.6242895
H           2.5715107    -3.2416159     0.7784309
H           1.3963748    -1.9840150     1.2169350
H           3.1176144    -1.5806655     1.0000972
C           7.3151298    -1.6766383     0.4875280
H           8.2521872    -2.1118382     0.8241916
C           6.6379491    -0.7582621     1.2876495
H           7.0454767    -0.4712318     2.2536698
C           5.4323080    -0.1982056     0.8541661
H           4.9240011     0.5173591     1.4935449
C           4.8823649    -0.5477360    -0.3854068
C           5.5790710    -1.4692978    -1.1846348
H           5.1731725    -1.7411783    -2.1563382
C           6.7796600    -2.0295000    -0.7541916
H           7.3004753    -2.7403447    -1.3905538
