23
422_C9H11NO2_11-0-1-2 (-165,) energy =    -554.7970060
C           0.6223811     0.4004991    -0.5854405
N           1.5258945     1.1075450    -1.3270137
C           1.2309258     2.3799601    -1.9495673
H           0.8187400     3.1113632    -1.2381787
H           0.5182238     2.2746959    -2.7784774
H           2.1590516     2.7846139    -2.3601085
H           2.4947031     0.8617422    -1.1534116
C          -0.7581045     0.7138667    -0.6335537
H          -1.0949062     1.5293669    -1.2638141
C          -1.6843830    -0.0104165     0.0999326
H          -2.7358988     0.2582362     0.0316903
C           1.0317387    -0.6772075     0.2658499
C           2.4558145    -1.0307000     0.3913385
C          -1.2863982    -1.0746214     0.9202955
H          -2.0166809    -1.6389499     1.4915748
C           0.0609249    -1.3917024     0.9925248
H           0.3950552    -2.2052273     1.6259109
O           2.6771090    -2.0710116     1.2304267
C           4.0496674    -2.4516385     1.3926751
H           4.0367696    -3.2927052     2.0869615
H           4.6352489    -1.6245358     1.8032705
H           4.4844860    -2.7510762     0.4352106
O           3.3882573    -0.4691940    -0.1794224
23
422_C9H11NO2_11-0-1-2 (-150,) energy =    -554.7955047
C           0.5548220     0.3169892    -0.6564361
N           1.4396845     1.0013977    -1.4537443
C           1.2117962     2.3802093    -1.8522417
H           0.9107419     3.0198172    -1.0089170
H           0.4417481     2.4586384    -2.6298612
H           2.1411270     2.7722629    -2.2727279
H           2.4062016     0.7431880    -1.2797125
C          -0.8230556     0.6377631    -0.6778450
H          -1.1700120     1.4272605    -1.3356578
C          -1.7348431    -0.0505835     0.1068225
H          -2.7868835     0.2192974     0.0543791
C           0.9837036    -0.7176627     0.2346131
C           2.4120017    -1.0654337     0.3513167
C          -1.3189684    -1.0833464     0.9576533
H          -2.0366309    -1.6224676     1.5680568
C           0.0287943    -1.4019041     1.0108985
H           0.3758006    -2.1889168     1.6701956
O           2.6495591    -2.0471170     1.2536728
C           4.0248929    -2.4209002     1.4108325
H           4.0254470    -3.2147927     2.1586518
H           4.6204251    -1.5705107     1.7538646
H           4.4380382    -2.7832920     0.4656500
O           3.3321344    -0.5443386    -0.2735318
23
422_C9H11NO2_11-0-1-2 (-135,) energy =    -554.7928901
C           0.4847752     0.2743565    -0.7318770
N           1.3544850     0.9473336    -1.5725051
C           1.2520193     2.3942982    -1.7362183
H           1.1988755     2.9303901    -0.7763236
H           0.3755324     2.6732611    -2.3312535
H           2.1355545     2.7374768    -2.2807375
H           2.3109097     0.6324427    -1.4331441
C          -0.8913271     0.5948850    -0.7412843
H          -1.2461343     1.3572840    -1.4269044
C          -1.7923517    -0.0623192     0.0815674
H          -2.8453973     0.2043298     0.0350388
C           0.9288005    -0.7230629     0.1898559
C           2.3604117    -1.0714107     0.2985098
C          -1.3615447    -1.0652187     0.9602430
H          -2.0691827    -1.5842488     1.5992896
C          -0.0135800    -1.3832475     1.0030059
H           0.3429914    -2.1484280     1.6824614
O           2.6118587    -1.9827351     1.2677789
C           3.9874322    -2.3600127     1.4179143
H           3.9994206    -3.0960206     2.2226110
H           4.5993683    -1.4932075     1.6816047
H           4.3722631    -2.7961005     0.4921604
O           3.2679906    -0.6072877    -0.3848561
23
422_C9H11NO2_11-0-1-2 (-120,) energy =    -554.7899926
C           0.4659051     0.2378122    -0.8005056
N           1.3192071     0.9088375    -1.6788732
C           1.3755873     2.3710057    -1.6119713
H           1.6817007     2.7445723    -0.6219136
H           0.4052833     2.8127338    -1.8564842
H           2.0954078     2.7226124    -2.3565730
H           2.2552156     0.5160982    -1.6081344
C          -0.9119074     0.5393526    -0.8204724
H          -1.2716861     1.2629222    -1.5454364
C          -1.8048357    -0.0914756     0.0318441
H          -2.8616859     0.1574757    -0.0232097
C           0.9242347    -0.7200765     0.1507999
C           2.3603806    -1.0635359     0.2547769
C          -1.3574569    -1.0549047     0.9456952
H          -2.0571833    -1.5587447     1.6055215
C          -0.0069124    -1.3615576     0.9924160
H           0.3586173    -2.1017964     1.6943965
O           2.6303267    -1.8874635     1.2943598
C           4.0063735    -2.2661423     1.4397750
H           4.0342909    -2.9287205     2.3055076
H           4.6328191    -1.3863405     1.6093695
H           4.3610299    -2.7858665     0.5457072
O           3.2505929    -0.6676314    -0.4891310
23
422_C9H11NO2_11-0-1-2 (-105,) energy =    -554.7870566
C           0.4293960     0.2127598    -0.8568082
N           1.2672750     0.8942342    -1.7609630
C           1.4990952     2.3160990    -1.4713446
H           1.9801172     2.4845388    -0.4944432
H           0.5536844     2.8667777    -1.4842626
H           2.1409938     2.7313618    -2.2539767
H           2.1700300     0.4241891    -1.7812002
C          -0.9472156     0.5030452    -0.8833493
H          -1.3051647     1.2003769    -1.6351090
C          -1.8342357    -0.1032145    -0.0047537
H          -2.8937032     0.1333700    -0.0621711
C           0.9017602    -0.7045668     0.1225194
C           2.3434739    -1.0400838     0.2203216
C          -1.3721909    -1.0302802     0.9375342
H          -2.0648257    -1.5183713     1.6166907
C          -0.0181730    -1.3260230     0.9900778
H           0.3548543    -2.0408756     1.7141888
O           2.6329271    -1.7863405     1.3115531
C           4.0103918    -2.1630309     1.4529030
H           4.0554616    -2.7588511     2.3651098
H           4.6449531    -1.2772009     1.5407696
H           4.3403599    -2.7508243     0.5921842
O           3.2147963    -0.7018222    -0.5702951
23
422_C9H11NO2_11-0-1-2 (-90,) energy =    -554.7840089
C           0.3682165     0.1859181    -0.8960370
N           1.1886856     0.8890328    -1.8185643
C           1.6197030     2.2134940    -1.3389245
H           2.1877989     2.1711337    -0.3959062
H           0.7474862     2.8567464    -1.1844355
H           2.2496926     2.6738227    -2.1061345
H           2.0371522     0.3422386    -1.9554805
C          -1.0092821     0.4527997    -0.9230372
H          -1.3750318     1.1296519    -1.6895047
C          -1.8830824    -0.1446058    -0.0215526
H          -2.9467911     0.0721907    -0.0769746
C           0.8639482    -0.6942531     0.1027226
C           2.3125148    -1.0174443     0.1827161
C          -1.3971817    -1.0344042     0.9419656
H          -2.0756675    -1.5154535     1.6404339
C          -0.0362955    -1.3055341     0.9954652
H           0.3527212    -1.9940951     1.7365971
O           2.6331117    -1.6871659     1.3139283
C           4.0147604    -2.0547758     1.4413491
H           4.0870986    -2.5846549     2.3916334
H           4.6503189    -1.1653742     1.4476083
H           4.3197741    -2.7021018     0.6148461
O           3.1566279    -0.7336399    -0.6549342
23
422_C9H11NO2_11-0-1-2 (-75,) energy =    -554.7807324
C           0.3090452     0.1963593    -0.9212179
N           1.1128662     0.9422505    -1.8419705
C           1.7469229     2.1222876    -1.2260058
H           2.3805279     1.8836841    -0.3583118
H           0.9737230     2.8284018    -0.9054259
H           2.3656780     2.6159562    -1.9818759
H           1.8819341     0.3366804    -2.1271199
C          -1.0723596     0.4204335    -0.9610848
H          -1.4480588     1.0824670    -1.7351706
C          -1.9353192    -0.1884699    -0.0528343
H          -3.0046061    -0.0041573    -0.1165768
C           0.8259307    -0.6531161     0.0919082
C           2.2784269    -0.9741664     0.1486052
C          -1.4264716    -1.0385534     0.9315651
H          -2.0920721    -1.5234278     1.6399330
C          -0.0565912    -1.2685428     0.9966538
H           0.3485972    -1.9323915     1.7517348
O           2.6307878    -1.5725715     1.3102717
C           4.0123928    -1.9487436     1.4137572
H           4.1136544    -2.4139045     2.3947631
H           4.6568300    -1.0691200     1.3366294
H           4.2804386    -2.6544438     0.6229595
O           3.0912297    -0.7533390    -0.7350260
23
422_C9H11NO2_11-0-1-2 (-60,) energy =    -554.7795500
C           0.2759466     0.2679067    -0.8474166
N           1.0388523     0.9779758    -1.7795081
C           2.0246686     1.9787967    -1.3569920
H           2.8819870     1.4902916    -0.8975585
H           1.6042588     2.7192548    -0.6580681
H           2.3718033     2.5034590    -2.2518710
H           0.4212857     1.3818057    -2.4760057
C          -1.1295931     0.3434575    -0.9632397
H          -1.5482060     0.9806809    -1.7399340
C          -1.9817664    -0.3408148    -0.1100019
H          -3.0571164    -0.2443691    -0.2363746
C           0.8089796    -0.5782085     0.1683517
C           2.2582814    -0.8923593     0.2748762
C          -1.4570537    -1.1269753     0.9200662
H          -2.1124783    -1.6550721     1.6058299
C          -0.0800356    -1.2355495     1.0435297
H           0.3424890    -1.8637424     1.8178520
O           2.5455207    -1.6036703     1.4000769
C           3.9159226    -1.9994387     1.5343284
H           3.9701066    -2.5459687     2.4768447
H           4.5713358    -1.1244585     1.5602119
H           4.2185406    -2.6401910     0.7013817
O           3.1246359    -0.6057564    -0.5307978
23
422_C9H11NO2_11-0-1-2 (-45,) energy =    -554.7802981
C           0.2467129     0.2761283    -0.8487503
N           1.0016048     1.0399211    -1.7279391
C           2.1630659     1.8348984    -1.3242414
H           3.0810373     1.2495996    -1.3837179
H           2.0580472     2.2170956    -0.2983614
H           2.2390195     2.6897809    -2.0021684
H           0.4001157     1.5530203    -2.3594465
C          -1.1609173     0.3406489    -0.9765183
H          -1.5795449     0.9888508    -1.7442702
C          -2.0097066    -0.3654686    -0.1410765
H          -3.0850146    -0.2776650    -0.2743018
C           0.7778795    -0.5862720     0.1522807
C           2.2222287    -0.9171858     0.2427825
C          -1.4868574    -1.1643398     0.8829580
H          -2.1438883    -1.7089090     1.5539713
C          -0.1110159    -1.2621996     1.0148222
H           0.3147529    -1.8987226     1.7812715
O           2.5518149    -1.4388080     1.4567321
C           3.9089677    -1.8824579     1.5786628
H           3.9964454    -2.2781929     2.5914567
H           4.6030092    -1.0502268     1.4318056
H           4.1321478    -2.6595616     0.8421886
O           3.0453258    -0.8023411    -0.6471814
23
422_C9H11NO2_11-0-1-2 (-30,) energy =    -554.7805039
C           0.2136344     0.3102538    -0.8419725
N           0.9363110     1.1508466    -1.6631004
C           2.2045528     1.7914760    -1.3409712
H           3.0575656     1.1761440    -1.6320200
H           2.2833863     1.9962886    -0.2642471
H           2.2455522     2.7469518    -1.8724016
H           0.3433976     1.7027174    -2.2661848
C          -1.1965158     0.3322123    -0.9807657
H          -1.6294562     0.9780090    -1.7426525
C          -2.0272246    -0.4090878    -0.1600385
H          -3.1036003    -0.3531193    -0.3018200
C           0.7630526    -0.5522884     0.1499314
C           2.2081361    -0.8790936     0.2221600
C          -1.4888407    -1.2039570     0.8606660
H          -2.1344244    -1.7763050     1.5194035
C          -0.1121282    -1.2636235     0.9989138
H           0.3288757    -1.8993733     1.7578665
O           2.5733533    -1.3136607     1.4598108
C           3.9269745    -1.7724271     1.5675836
H           4.0435753    -2.0965458     2.6026634
H           4.6286822    -0.9656720     1.3382084
H           4.1121804    -2.6039456     0.8816734
O           3.0002979    -0.8382228    -0.7024099
23
422_C9H11NO2_11-0-1-2 (-15,) energy =    -554.7797379
C           0.1902379     0.3537678    -0.8201962
N           0.8848836     1.2677181    -1.5748505
C           2.2327099     1.7708076    -1.3855242
H           2.9921167     1.1025789    -1.7976056
H           2.4505891     1.9119627    -0.3187195
H           2.2961823     2.7476471    -1.8742970
H           0.3048509     1.8071987    -2.1990351
C          -1.2209359     0.3499962    -0.9701760
H          -1.6609691     1.0074126    -1.7179478
C          -2.0422251    -0.4272691    -0.1752580
H          -3.1181472    -0.3900360    -0.3266199
C           0.7478127    -0.5274826     0.1518809
C           2.1925225    -0.8555628     0.2152587
C          -1.4974591    -1.2373421     0.8308753
H          -2.1369643    -1.8389001     1.4690684
C          -0.1211294    -1.2750384     0.9763693
H           0.3274433    -1.9236315     1.7202441
O           2.5750890    -1.2437394     1.4628293
C           3.9247848    -1.7155699     1.5656707
H           4.0546113    -2.0029660     2.6099909
H           4.6323976    -0.9267185     1.2956735
H           4.0887692    -2.5738594     0.9078806
O           2.9684156    -0.8592759    -0.7245680
23
422_C9H11NO2_11-0-1-2 (0,) energy =    -554.7785198
C           0.2379337     0.7889876    -0.3186917
N           0.9036482     1.6334631    -1.1743619
C           2.2415230     1.5479039    -1.7261190
H           2.4309064     0.5430142    -2.1206588
H           3.0253701     1.7746874    -0.9983989
H           2.2968641     2.2507809    -2.5629395
H           0.3965381     2.4772398    -1.3944059
C          -1.1265896     1.0959992    -0.0749010
H          -1.5268574     2.0216236    -0.4846986
C          -1.9598607     0.2426426     0.6234824
H          -2.9982418     0.5244980     0.7791649
C           0.7445558    -0.4195674     0.2428901
C           2.1914735    -0.7316333     0.3472359
C          -1.4789016    -0.9813248     1.1083866
H          -2.1304428    -1.6635137     1.6451934
C          -0.1433730    -1.2895831     0.9117483
H           0.2642372    -2.2113309     1.3117283
O           2.4284524    -2.0713298     0.3206262
C           3.7874950    -2.4541647     0.5706014
H           3.7940965    -3.5445208     0.5382097
H           4.1191148    -2.0967448     1.5496379
H           4.4519436    -2.0450619    -0.1955516
O           3.0878867     0.0768898     0.5144504
23
422_C9H11NO2_11-0-1-2 (15,) energy =    -554.7797379
C           0.2467412     0.8251853    -0.2711868
N           0.9458233     1.7175522    -1.0471174
C           2.1960739     1.5234649    -1.7581386
H           2.2435557     0.5187380    -2.1986152
H           3.0689406     1.6490778    -1.1138404
H           2.2320712     2.2512338    -2.5742949
H           0.4086411     2.5219200    -1.3325219
C          -1.1216327     1.1225912    -0.0409078
H          -1.5141021     2.0642629    -0.4205928
C          -1.9658203     0.2422406     0.6093254
H          -3.0078550     0.5154179     0.7557921
C           0.7463042    -0.4042966     0.2500449
C           2.1928381    -0.7116563     0.3572221
C          -1.4909666    -0.9992260     1.0549231
H          -2.1513514    -1.7024417     1.5524304
C          -0.1520923    -1.2996475     0.8707000
H           0.2490380    -2.2357963     1.2420627
O           2.4325050    -2.0518001     0.3643638
C           3.7944622    -2.4245598     0.6111456
H           3.8046398    -3.5153669     0.6016794
H           4.1326634    -2.0458438     1.5799070
H           4.4515316    -2.0293785    -0.1685468
O           3.0901417     0.1016442     0.4944964
23
422_C9H11NO2_11-0-1-2 (30,) energy =    -554.7805039
C           0.2991501     0.8162039    -0.2296398
N           1.0448471     1.7464216    -0.9237147
C           2.1838221     1.4679797    -1.7884778
H           2.0868234     0.4839458    -2.2678164
H           3.1266332     1.4856539    -1.2391431
H           2.2053508     2.2282848    -2.5749294
H           0.4925725     2.5380359    -1.2206282
C          -1.0716900     1.1129940    -0.0272057
H          -1.4530281     2.0638136    -0.3952885
C          -1.9335761     0.2219233     0.5862603
H          -2.9787087     0.4932792     0.7122849
C           0.7837686    -0.4259237     0.2723310
C           2.2288489    -0.7447661     0.3741708
C          -1.4706749    -1.0283575     1.0175734
H          -2.1438571    -1.7398507     1.4854391
C          -0.1289336    -1.3309999     0.8558721
H           0.2597664    -2.2772206     1.2139916
O           2.4543422    -2.0864878     0.4284577
C           3.8173856    -2.4645023     0.6599523
H           3.8161165    -3.5548926     0.6929051
H           4.1806867    -2.0522039     1.6055840
H           4.4610094    -2.1071791    -0.1487064
O           3.1372791     0.0619785     0.4632667
23
422_C9H11NO2_11-0-1-2 (45,) energy =    -554.7802981
C           0.3360742     0.8098115    -0.1996413
N           1.1294316     1.7713641    -0.8097353
C           2.1362328     1.4682922    -1.8287795
H           1.8478579     0.6011249    -2.4406567
H           3.1068468     1.2651940    -1.3755211
H           2.2231583     2.3378444    -2.4864274
H           0.5766263     2.5807172    -1.0611618
C          -1.0380982     1.1071780    -0.0411084
H          -1.4047566     2.0626460    -0.4119182
C          -1.9233790     0.2134877     0.5373412
H          -2.9718537     0.4850696     0.6305607
C           0.8014194    -0.4389579     0.3023172
C           2.2435690    -0.7762918     0.4035599
C          -1.4758351    -1.0393064     0.9737175
H          -2.1647964    -1.7538156     1.4133910
C          -0.1302369    -1.3459768     0.8503359
H           0.2424783    -2.2978652     1.2093303
O           2.4460389    -2.1147074     0.5520176
C           3.8090326    -2.5025931     0.7649694
H           3.7894097    -3.5876193     0.8760686
H           4.2115572    -2.0315700     1.6661935
H           4.4307490    -2.2165117    -0.0879639
O           3.1701419     0.0137383     0.4088830
23
422_C9H11NO2_11-0-1-2 (60,) energy =    -554.7795500
C           0.3654954     0.8030547    -0.1960103
N           1.1796729     1.7998967    -0.7423048
C           1.9903598     1.5537589    -1.9398843
H           1.4026452     1.1309465    -2.7701483
H           2.8172740     0.8869485    -1.7026344
H           2.4082399     2.5118465    -2.2624146
H           0.6312213     2.6439112    -0.8704274
C          -1.0094237     1.0917331    -0.0513491
H          -1.3736839     2.0528131    -0.4093762
C          -1.9027675     0.1872668     0.5021123
H          -2.9531216     0.4546274     0.5853216
C           0.8289339    -0.4556584     0.2863634
C           2.2719968    -0.8043874     0.3668302
C          -1.4555299    -1.0681031     0.9245302
H          -2.1466697    -1.7924772     1.3444676
C          -0.1065077    -1.3697571     0.8133865
H           0.2610475    -2.3265822     1.1628384
O           2.4643305    -2.1040561     0.7251804
C           3.8338424    -2.4923725     0.8873687
H           3.8064865    -3.5468992     1.1652047
H           4.3148602    -1.9013497     1.6717506
H           4.3885243    -2.3557731    -0.0450985
O           3.2120197    -0.0537584     0.1804588
23
422_C9H11NO2_11-0-1-2 (75,) energy =    -554.7807322
C           0.4162529     0.8508206    -0.1129182
N           1.2649840     1.8422516    -0.7019611
C           1.6829731     1.4991918    -2.0737082
H           0.8049580     1.4685921    -2.7273839
H           2.2065471     0.5341430    -2.1498459
H           2.3508968     2.2859177    -2.4381583
H           2.1235891     1.8658055    -0.1526116
C          -0.9605352     1.1040268    -0.1331473
H          -1.2853158     2.0646292    -0.5209744
C          -1.8798692     0.1682268     0.3352359
H          -2.9419879     0.3984619     0.3175723
C           0.8646129    -0.4047421     0.3748153
C           2.3185903    -0.7084354     0.4734459
C          -1.4352635    -1.0590330     0.8320598
H          -2.1442952    -1.7921772     1.2057798
C          -0.0728711    -1.3367981     0.8530458
H           0.2838343    -2.2830106     1.2435098
O           2.5581931    -2.0195143     0.7086122
C           3.9411784    -2.3747372     0.8576317
H           3.9462049    -3.4490581     1.0441989
H           4.3898055    -1.8356935     1.6963051
H           4.4984372    -2.1397274    -0.0529887
O           3.2240028     0.1043747     0.3740497
23
422_C9H11NO2_11-0-1-2 (90,) energy =    -554.7840089
C           0.4717570     0.8171301    -0.1173911
N           1.3420074     1.7965175    -0.6670778
C           1.5659229     1.6447819    -2.1150986
H           0.6209082     1.7673288    -2.6539220
H           1.9944710     0.6675020    -2.3891309
H           2.2503249     2.4317974    -2.4461770
H           2.2514471     1.6854604    -0.2218789
C          -0.9072690     1.0691574    -0.1821890
H          -1.2247878     2.0252377    -0.5877280
C          -1.8375350     0.1442662     0.2785822
H          -2.8985432     0.3748193     0.2270453
C           0.9042565    -0.4303231     0.4067921
C           2.3512765    -0.7561787     0.5027816
C          -1.4087342    -1.0709885     0.8221414
H          -2.1291020    -1.7923465     1.1967416
C          -0.0494144    -1.3475877     0.8865923
H           0.2958258    -2.2851804     1.3066533
O           2.5713570    -2.0541279     0.8155830
C           3.9501026    -2.4297210     0.9509196
H           3.9377819    -3.4891758     1.2086942
H           4.4333821    -1.8467360     1.7394250
H           4.4864964    -2.2685575     0.0121333
O           3.2743482     0.0265862     0.3297976
23
422_C9H11NO2_11-0-1-2 (105,) energy =    -554.7870561
C           0.5102454     0.7828777    -0.1579767
N           1.3952048     1.7390801    -0.6936624
C           1.4425173     1.8153112    -2.1602594
H           0.4592374     2.0810656    -2.5599820
H           1.7598412     0.8712032    -2.6315651
H           2.1458560     2.6030835    -2.4461711
H           2.3332260     1.5329740    -0.3559010
C          -0.8709580     1.0361806    -0.2476088
H          -1.1878217     1.9808970    -0.6796432
C          -1.8075788     0.1302474     0.2302728
H          -2.8667476     0.3641268     0.1581616
C           0.9295980    -0.4511037     0.4122028
C           2.3693958    -0.7922556     0.5173437
C          -1.3923020    -1.0694224     0.8211842
H          -2.1212921    -1.7739567     1.2103239
C          -0.0363882    -1.3468411     0.9117605
H           0.3006439    -2.2715976     1.3653989
O           2.5756705    -2.0705520     0.9106560
C           3.9502526    -2.4571384     1.0539439
H           3.9258984    -3.4970085     1.3813885
H           4.4521521    -1.8310997     1.7965079
H           4.4771888    -2.3667046     0.1004203
O           3.3048849    -0.0379737     0.2835500
23
422_C9H11NO2_11-0-1-2 (120,) energy =    -554.7899926
C           0.5478709     0.7290308    -0.2048407
N           1.4470643     1.6539543    -0.7394752
C           1.3475030     1.9760925    -2.1649330
H           0.3832028     2.4374895    -2.3965516
H           1.4697441     1.0947775    -2.8144046
H           2.1280888     2.7020673    -2.4095505
H           2.3976915     1.3760270    -0.5061683
C          -0.8359839     0.9834547    -0.3045192
H          -1.1584654     1.9116073    -0.7661570
C          -1.7745278     0.0987050     0.2034713
H          -2.8320994     0.3365004     0.1201697
C           0.9582730    -0.4895945     0.4109056
C           2.3917032    -0.8421151     0.5217703
C          -1.3689637    -1.0843491     0.8354193
H          -2.1023965    -1.7724234     1.2446488
C          -0.0152962    -1.3626868     0.9369427
H           0.3177453    -2.2739469     1.4196761
O           2.5907280    -2.0880640     1.0121484
C           3.9625770    -2.4828690     1.1542948
H           3.9320997    -3.4920898     1.5663954
H           4.4915255    -1.8065524     1.8310954
H           4.4675695    -2.4792646     0.1846457
O           3.3353875    -0.1237954     0.2117715
23
422_C9H11NO2_11-0-1-2 (135,) energy =    -554.7928901
C           0.5529728     0.6710966    -0.2596984
N           1.4627294     1.5585972    -0.8079850
C           1.2412580     2.1150416    -2.1392676
H           0.4356429     2.8574055    -2.1387868
H           0.9981111     1.3464638    -2.8887910
H           2.1550686     2.6291632    -2.4483564
H           2.4158945     1.2336535    -0.6693634
C          -0.8325943     0.9202546    -0.3805666
H          -1.1596777     1.8205703    -0.8901383
C          -1.7722363     0.0575137     0.1612770
H          -2.8290258     0.2915188     0.0582749
C           0.9574713    -0.5282210     0.4033421
C           2.3862586    -0.8860054     0.5182796
C          -1.3740382    -1.1005789     0.8422545
H          -2.1107200    -1.7720089     1.2723755
C          -0.0212038    -1.3778474     0.9560319
H           0.3087521    -2.2732283     1.4695753
O           2.5857709    -2.0861208     1.1125348
C           3.9563243    -2.4850532     1.2522340
H           3.9261629    -3.4538428     1.7521588
H           4.5111752    -1.7594358     1.8529897
H           4.4349002    -2.5732425     0.2731848
O           3.3315915    -0.2092212     0.1253291
23
422_C9H11NO2_11-0-1-2 (150,) energy =    -554.7955047
C           0.6389752     0.6118672    -0.3435194
N           1.5595233     1.4561721    -0.9150932
C           1.2580519     2.2350823    -2.1042203
H           0.6055105     3.0879189    -1.8791593
H           0.7761448     1.6356632    -2.8912223
H           2.1957490     2.6363853    -2.4964439
H           2.5108274     1.1089483    -0.8401063
C          -0.7456315     0.8784234    -0.4604393
H          -1.0684350     1.7604556    -1.0028302
C          -1.6903199     0.0480382     0.1217166
H          -2.7446087     0.2929430     0.0176306
C           1.0323514    -0.5684659     0.3640837
C           2.4553335    -0.9383650     0.4774958
C          -1.3040912    -1.0920795     0.8389166
H          -2.0469151    -1.7381294     1.2961543
C           0.0460516    -1.3846298     0.9502721
H           0.3683835    -2.2672049     1.4902937
O           2.6535784    -2.0921167     1.1585853
C           4.0211152    -2.5014477     1.2942057
H           3.9901563    -3.4289573     1.8671379
H           4.6019068    -1.7417410     1.8241812
H           4.4733113    -2.6714745     0.3133330
O           3.4012917    -0.3067182     0.0139821
23
422_C9H11NO2_11-0-1-2 (165,) energy =    -554.7970056
C           0.6432514     0.5427163    -0.4224544
N           1.5652125     1.3441916    -1.0336681
C           1.2333875     2.3132153    -2.0558146
H           0.6521343     3.1523391    -1.6508111
H           0.6600060     1.8717769    -2.8848912
H           2.1642038     2.7192320    -2.4588403
H           2.5206569     1.0089269    -0.9728972
C          -0.7415769     0.8219913    -0.5253632
H          -1.0678486     1.6795357    -1.1031429
C          -1.6831382     0.0268554     0.1084883
H          -2.7367465     0.2773645     0.0100122
C           1.0367411    -0.6052383     0.3397627
C           2.4575823    -0.9752190     0.4540718
C          -1.2976487    -1.0859310     0.8680821
H          -2.0401290    -1.7038040     1.3631279
C           0.0513855    -1.3864795     0.9720742
H           0.3743889    -2.2467907     1.5466873
O           2.6631031    -2.0838907     1.2050824
C           4.0308633    -2.4900747     1.3440973
H           4.0058002    -3.3814453     1.9721328
H           4.6225612    -1.7027062     1.8189051
H           4.4677245    -2.7205487     0.3685950
O           3.3992843    -0.3776779    -0.0622669
23
422_C9H11NO2_11-0-1-2 (180,) energy =    -554.7974024
C           0.6388022     0.4712947    -0.5017286
N           1.5533717     1.2228830    -1.1757231
C           1.2266564     2.3572568    -2.0075462
H           0.7284026     3.1574938    -1.4415072
H           0.5746806     2.0811909    -2.8488718
H           2.1548263     2.7614659    -2.4181675
H           2.5195600     0.9374876    -1.0629077
C          -0.7447292     0.7684684    -0.5778497
H          -1.0749406     1.6060385    -1.1819774
C          -1.6799159     0.0075490     0.1053108
H          -2.7325635     0.2672967     0.0212364
C           1.0377991    -0.6433644     0.3071693
C           2.4593425    -1.0049078     0.4274628
C          -1.2905750    -1.0823993     0.8957853
H          -2.0284979    -1.6739895     1.4282920
C           0.0575795    -1.3915352     0.9853741
H           0.3845958    -2.2293183     1.5902741
O           2.6730647    -2.0798617     1.2241036
C           4.0430919    -2.4737340     1.3743094
H           4.0243746    -3.3401062     2.0366417
H           4.6325108    -1.6658025     1.8163639
H           4.4782302    -2.7398265     0.4071316
O           3.3965799    -0.4253447    -0.1175661
