23
422_C9H11NO2_11-12-17-18 (-165,) energy =    -554.7962822
C           0.6509326     0.4605534    -0.5345170
N           1.5606782     1.2000697    -1.2279269
C           1.2364478     2.3660180    -2.0160409
H           0.7830370     3.1650644    -1.4114554
H           0.5459065     2.1302455    -2.8382544
H           2.1598691     2.7542076    -2.4520137
H           2.5260060     0.9063895    -1.1294542
C          -0.7264690     0.7930223    -0.5574672
H          -1.0563628     1.6488523    -1.1356107
C          -1.6561647     0.0440352     0.1460105
H          -2.7040422     0.3317730     0.1039030
C           1.0495785    -0.6775360     0.2417379
C           2.4644388    -1.0761312     0.3070745
C          -1.2672039    -1.0679157     0.9055224
H          -2.0009713    -1.6483328     1.4557578
C           0.0747195    -1.4126242     0.9418792
H           0.4019591    -2.2676005     1.5220286
O           2.6760666    -2.1880804     1.0539720
C           4.0386471    -2.4291428     1.4289432
H           4.0113304    -3.3100069     2.0716434
H           4.4448580    -1.5710397     1.9722081
H           4.6598941    -2.6174805     0.5493916
O           3.4034984    -0.4727337    -0.2077546
23
422_C9H11NO2_11-12-17-18 (-150,) energy =    -554.7931815
C           0.6737096     0.4591703    -0.5677684
N           1.5731849     1.1903777    -1.2822832
C           1.2479971     2.3819867    -2.0309987
H           0.8371032     3.1774880    -1.3921687
H           0.5215147     2.1806341    -2.8308097
H           2.1633119     2.7579297    -2.4938993
H           2.5371370     0.8844918    -1.2093624
C          -0.6962428     0.8201495    -0.5351071
H          -1.0288139     1.6920599    -1.0870931
C          -1.6151612     0.0783344     0.1897942
H          -2.6576140     0.3880440     0.1908729
C           1.0769220    -0.6992662     0.1766610
C           2.4838481    -1.1261798     0.1871088
C          -1.2225024    -1.0538546     0.9172289
H          -1.9480836    -1.6277406     1.4848936
C           0.1120717    -1.4265364     0.8993119
H           0.4435183    -2.2971396     1.4529936
O           2.7018796    -2.2627224     0.9015288
C           3.9963385    -2.3701992     1.5090308
H           3.9748290    -3.2985832     2.0813366
H           4.1757004    -1.5196917     2.1745483
H           4.7859712    -2.4070513     0.7544037
O           3.4191701    -0.5126815    -0.3212689
23
422_C9H11NO2_11-12-17-18 (-135,) energy =    -554.7890131
C           0.6859824     0.4472263    -0.5932146
N           1.5665367     1.1742633    -1.3335873
C           1.2311262     2.3829893    -2.0500743
H           0.8653439     3.1760495    -1.3816828
H           0.4653475     2.2071273    -2.8185278
H           2.1317635     2.7484013    -2.5487011
H           2.5258221     0.8460402    -1.3129187
C          -0.6737764     0.8334060    -0.4911824
H          -1.0146819     1.7215464    -1.0112853
C          -1.5725878     0.0948695     0.2614556
H          -2.6076971     0.4238588     0.3157728
C           1.1008451    -0.7325569     0.1121253
C           2.4968968    -1.1842105     0.0559332
C          -1.1699325    -1.0589099     0.9491521
H          -1.8806981    -1.6304420     1.5375451
C           0.1544344    -1.4561972     0.8635823
H           0.4945172    -2.3449674     1.3818135
O           2.7321248    -2.3414659     0.7446313
C           3.9067733    -2.3445836     1.5658506
H           4.0068516    -3.3629883     1.9442057
H           3.7804136    -1.6491645     2.4038299
H           4.7921935    -2.0679188     0.9882298
O           3.4176754    -0.5791944    -0.4855551
23
422_C9H11NO2_11-12-17-18 (-120,) energy =    -554.7848501
C           0.7117912     0.4457434    -0.6092811
N           1.5685770     1.1775999    -1.3710728
C           1.2169206     2.4000999    -2.0560739
H           0.8849745     3.1850131    -1.3612853
H           0.4202737     2.2431988    -2.7968040
H           2.1011284     2.7656267    -2.5831204
H           2.5205432     0.8295936    -1.4093558
C          -0.6378841     0.8442879    -0.4414695
H          -0.9908951     1.7458024    -0.9295237
C          -1.5117056     0.0996942     0.3340328
H          -2.5400010     0.4378031     0.4385363
C           1.1438442    -0.7520557     0.0556707
C           2.5302473    -1.2148953    -0.0631217
C          -1.0938001    -1.0731530     0.9799148
H          -1.7869116    -1.6502697     1.5836695
C           0.2207961    -1.4826012     0.8302309
H           0.5721016    -2.3887121     1.3096665
O           2.7994055    -2.3807968     0.6122204
C           3.8099706    -2.2787754     1.6216026
H           4.0030675    -3.2963146     1.9653979
H           3.4489305    -1.6700869     2.4600255
H           4.7275282    -1.8430678     1.2150389
O           3.4280214    -0.6236325    -0.6535671
23
422_C9H11NO2_11-12-17-18 (-105,) energy =    -554.7814878
C           0.7462337     0.4347063    -0.6299718
N           1.5778631     1.1764709    -1.4089195
C           1.2042745     2.4066319    -2.0684411
H           0.8967648     3.1818597    -1.3524970
H           0.3830844     2.2601784    -2.7844962
H           2.0713310     2.7789657    -2.6186273
H           2.5130111     0.8009244    -1.5254023
C          -0.5907557     0.8422083    -0.3950035
H          -0.9558874     1.7576514    -0.8469221
C          -1.4381460     0.0867699     0.3988921
H          -2.4578327     0.4312992     0.5542395
C           1.1945556    -0.7823269    -0.0115913
C           2.5695287    -1.2544840    -0.1962956
C          -1.0063280    -1.1069768     0.9961823
H          -1.6811230    -1.6942573     1.6107362
C           0.2963879    -1.5246832     0.7812970
H           0.6557370    -2.4503281     1.2158964
O           2.8798803    -2.4203215     0.4736516
C           3.6912590    -2.2406929     1.6379957
H           3.9484717    -3.2407237     1.9917430
H           3.1354278    -1.7070407     2.4200072
H           4.6069061    -1.6904418     1.3946498
O           3.4333116    -0.6864812    -0.8534220
23
422_C9H11NO2_11-12-17-18 (-90,) energy =    -554.7794246
C           0.7828889     0.4237720    -0.6398714
N           1.5955903     1.1668231    -1.4375776
C           1.2115355     2.4088062    -2.0686008
H           0.9431961     3.1785341    -1.3316596
H           0.3604790     2.2818694    -2.7531348
H           2.0610493     2.7771455    -2.6480262
H           2.5063400     0.7618788    -1.6261327
C          -0.5390148     0.8439195    -0.3478239
H          -0.9065968     1.7734492    -0.7678478
C          -1.3702641     0.0812059     0.4562345
H          -2.3798580     0.4340746     0.6530002
C           1.2383645    -0.8078868    -0.0572639
C           2.6033690    -1.2908477    -0.2922150
C          -0.9363694    -1.1335139     1.0077998
H          -1.5998588    -1.7311538     1.6246822
C           0.3547011    -1.5590107     0.7433479
H           0.7119238    -2.5028859     1.1394773
O           2.9603080    -2.4326110     0.4005506
C           3.5431254    -2.1974173     1.6851069
H           3.7978012    -3.1782758     2.0909710
H           2.8360408    -1.6950189     2.3576565
H           4.4539527    -1.5935067     1.5935038
O           3.4207050    -0.7667880    -1.0366909
23
422_C9H11NO2_11-12-17-18 (-75,) energy =    -554.7783698
C           0.8093421     0.4335653    -0.6571019
N           1.6117988     1.1816252    -1.4632322
C           1.2138232     2.4247315    -2.0840441
H           0.9622403     3.1897206    -1.3373040
H           0.3480784     2.3032936    -2.7520269
H           2.0523321     2.7966881    -2.6771241
H           2.4722068     0.7292462    -1.7522706
C          -0.4945131     0.8701459    -0.3141611
H          -0.8567543     1.8165746    -0.6996214
C          -1.3193499     0.0987708     0.4888321
H          -2.3171320     0.4629949     0.7215992
C           1.2615518    -0.8158236    -0.1134160
C           2.6132786    -1.3169471    -0.4048098
C          -0.8956468    -1.1416108     0.9871362
H          -1.5569791    -1.7506551     1.5950917
C           0.3831118    -1.5782549     0.6808346
H           0.7274850    -2.5441227     1.0342643
O           3.0375791    -2.4057345     0.3287678
C           3.4103412    -2.1515656     1.6869547
H           3.6580539    -3.1221476     2.1210803
H           2.5944964    -1.6924436     2.2566150
H           4.2933064    -1.5019223     1.7260932
O           3.3599499    -0.8605520    -1.2581134
23
422_C9H11NO2_11-12-17-18 (-60,) energy =    -554.7776726
C           0.8152192     0.4574148    -0.6548902
N           1.6214061     1.2025379    -1.4645157
C           1.2149227     2.4394840    -2.0932329
H           0.9852032     3.2137256    -1.3495233
H           0.3332077     2.3168515    -2.7405909
H           2.0424748     2.8005344    -2.7081314
H           2.4330838     0.7117821    -1.8223186
C          -0.4765525     0.9097291    -0.2904578
H          -0.8280332     1.8672696    -0.6579600
C          -1.3083705     0.1373033     0.5056615
H          -2.2987106     0.5126523     0.7518640
C           1.2568045    -0.8005275    -0.1263496
C           2.5995874    -1.3210445    -0.4529934
C          -0.9016031    -1.1188095     0.9744789
H          -1.5694256    -1.7323812     1.5706651
C           0.3716442    -1.5659074     0.6549633
H           0.6992512    -2.5454225     0.9879800
O           3.1006515    -2.3275145     0.3343451
C           3.2801337    -2.0983022     1.7367935
H           3.3527365    -3.0820392     2.2055020
H           2.4493055    -1.5417442     2.1786542
H           4.2149775    -1.5495935     1.9026674
O           3.2685872    -0.9500499    -1.4051982
23
422_C9H11NO2_11-12-17-18 (-45,) energy =    -554.7775600
C           0.8593252     0.4806805    -0.6426120
N           1.6386699     1.2532856    -1.4554071
C           1.1773672     2.4650986    -2.0957508
H           0.9118569     3.2329258    -1.3577465
H           0.3031860     2.2991372    -2.7442121
H           1.9896458     2.8592940    -2.7107526
H           2.4451158     0.7755476    -1.8415301
C          -0.4453015     0.8882593    -0.2743096
H          -0.8302845     1.8331642    -0.6408439
C          -1.2496031     0.0867207     0.5223551
H          -2.2518167     0.4275723     0.7705597
C           1.3464963    -0.7598998    -0.1136581
C           2.7049227    -1.2359136    -0.4613777
C          -0.7992237    -1.1546202     0.9876799
H          -1.4437680    -1.7928118     1.5836332
C           0.4900103    -1.5554504     0.6670698
H           0.8469982    -2.5234850     1.0026581
O           3.3032149    -2.1632085     0.3435890
C           3.2815903    -2.0472912     1.7717155
H           2.8006341    -2.9297378     2.2049868
H           2.7540692    -1.1490902     2.1014705
H           4.3221486    -2.0057017     2.1078744
O           3.3106022    -0.8888251    -1.4635527
23
422_C9H11NO2_11-12-17-18 (-30,) energy =    -554.7773353
C           0.8604203     0.4887697    -0.6500687
N           1.6408708     1.2683456    -1.4599107
C           1.1650738     2.4747663    -2.1014257
H           0.8996958     3.2411552    -1.3623879
H           0.2873637     2.3022564    -2.7439190
H           1.9707953     2.8745798    -2.7215179
H           2.4134174     0.7734448    -1.8907550
C          -0.4376060     0.8990053    -0.2662299
H          -0.8205276     1.8498540    -0.6192494
C          -1.2416362     0.0917222     0.5264484
H          -2.2402407     0.4345722     0.7859695
C           1.3463152    -0.7578240    -0.1369005
C           2.7004254    -1.2336600    -0.5168255
C          -0.7949658    -1.1572760     0.9708622
H          -1.4382254    -1.8013018     1.5619286
C           0.4918594    -1.5595026     0.6373550
H           0.8421689    -2.5349221     0.9583301
O           3.3956911    -2.0492367     0.3233099
C           3.2554722    -2.0178568     1.7482180
H           2.7254627    -2.9085612     2.0998202
H           2.7293703    -1.1228631     2.0879898
H           4.2704344    -2.0250601     2.1550203
O           3.2381211    -0.9474351    -1.5750785
23
422_C9H11NO2_11-12-17-18 (-15,) energy =    -554.7765722
C           0.8660693     0.4940478    -0.6531687
N           1.6489764     1.2743247    -1.4638737
C           1.1654791     2.4758260    -2.1098028
H           0.9024356     3.2445774    -1.3726301
H           0.2844600     2.2984610    -2.7467746
H           1.9668967     2.8752789    -2.7357488
H           2.4003493     0.7687101    -1.9185643
C          -0.4283745     0.9074067    -0.2642756
H          -0.8093535     1.8600116    -0.6145846
C          -1.2336586     0.1007831     0.5291504
H          -2.2303971     0.4463370     0.7920987
C           1.3505947    -0.7533643    -0.1425894
C           2.7064074    -1.2239288    -0.5378720
C          -0.7896223    -1.1497641     0.9683183
H          -1.4323247    -1.7941505     1.5596195
C           0.4966887    -1.5545061     0.6308798
H           0.8423539    -2.5320833     0.9505468
O           3.4846853    -1.9187692     0.3328757
C           3.2539759    -2.0027781     1.7425016
H           2.7462383    -2.9386309     1.9964040
H           2.6718557    -1.1564566     2.1140308
H           4.2441550    -2.0009757     2.2051469
O           3.1921013    -0.9929558    -1.6336726
23
422_C9H11NO2_11-12-17-18 (0,) energy =    -554.7752740
C           0.8669693     0.4887461    -0.6477477
N           1.6498047     1.2641148    -1.4647311
C           1.1647572     2.4625542    -2.1149725
H           0.9095084     3.2369991    -1.3809587
H           0.2783746     2.2837900    -2.7441895
H           1.9625122     2.8554124    -2.7497123
H           2.3961183     0.7550694    -1.9232461
C          -0.4267200     0.9049431    -0.2609581
H          -0.8078648     1.8553081    -0.6170706
C          -1.2328424     0.1038364     0.5377653
H          -2.2293252     0.4518330     0.7983677
C           1.3526252    -0.7545039    -0.1277663
C           2.7161878    -1.2133414    -0.5210926
C          -0.7890541    -1.1433616     0.9838543
H          -1.4314276    -1.7844642     1.5790667
C           0.4983935    -1.5503120     0.6497463
H           0.8404695    -2.5265650     0.9767315
O           3.5538616    -1.7916914     0.3777028
C           3.2561937    -2.0274403     1.7557052
H           2.7846719    -3.0062854     1.8902630
H           2.6174623    -1.2479086     2.1778749
H           4.2224911    -2.0282583     2.2653618
O           3.1749080    -1.0217796    -1.6356301
23
422_C9H11NO2_11-12-17-18 (15,) energy =    -554.7765719
C           0.8835513     0.5804649    -0.5174546
N           1.6835414     1.4845372    -1.1656831
C           1.1706976     2.4777256    -2.0847897
H           0.4078747     3.1305975    -1.6319120
H           0.7313646     2.0078942    -2.9736261
H           2.0040493     3.1019734    -2.4156038
H           2.5442651     1.6983145    -0.6754191
C          -0.4894645     0.4589919    -0.8311536
H          -0.9174978     1.0926302    -1.5996774
C          -1.3072272    -0.4322289    -0.1492171
H          -2.3620793    -0.4833417    -0.4074992
C           1.4223747    -0.2985383     0.4772185
C           2.8629073    -0.1948785     0.8359203
C          -0.7982884    -1.2386689     0.8729850
H          -1.4455621    -1.9096863     1.4285838
C           0.5583445    -1.1638644     1.1659296
H           0.9574976    -1.7710784     1.9716365
O           3.5798021    -1.2994218     1.1727317
C           3.1618878    -2.6463354     0.9317463
H           2.7225237    -3.0832347     1.8340154
H           4.0712548    -3.1974364     0.6790366
H           2.4490837    -2.7132080     0.1066486
O           3.4737249     0.8619976     0.8192481
23
422_C9H11NO2_11-12-17-18 (30,) energy =    -554.7773353
C           0.8752907     0.5917636    -0.5213026
N           1.6733061     1.4939253    -1.1709613
C           1.1655705     2.4833616    -2.0964974
H           0.4096707     3.1454711    -1.6457555
H           0.7192557     2.0104293    -2.9802792
H           2.0026017     3.0986240    -2.4347124
H           2.5463100     1.6914945    -0.6953309
C          -0.4997421     0.4725382    -0.8303532
H          -0.9289566     1.1070735    -1.5974956
C          -1.3155564    -0.4182340    -0.1466368
H          -2.3713344    -0.4683500    -0.4014485
C           1.4150946    -0.2864993     0.4740338
C           2.8517636    -0.1946247     0.8372711
C          -0.8045260    -1.2272540     0.8738322
H          -1.4514030    -1.8981789     1.4299947
C           0.5516336    -1.1528160     1.1640780
H           0.9558371    -1.7598441     1.9674144
O           3.5062481    -1.2921927     1.3076643
C           3.1666973    -2.6327115     0.9353233
H           2.6918149    -3.1531808     1.7728763
H           4.1100185    -3.1314442     0.6963425
H           2.5052549    -2.6609857     0.0664551
O           3.4978867     0.8383194     0.7568453
23
422_C9H11NO2_11-12-17-18 (45,) energy =    -554.7775600
C           0.8750617     0.5787200    -0.5133294
N           1.6735637     1.4819949    -1.1547304
C           1.1800347     2.4704434    -2.0878497
H           0.4277398     3.1397922    -1.6425765
H           0.7338227     1.9991956    -2.9730180
H           2.0237211     3.0784678    -2.4223764
H           2.5721938     1.6367657    -0.7118082
C          -0.5041317     0.4750649    -0.8149495
H          -0.9327884     1.1216299    -1.5723179
C          -1.3217651    -0.4178797    -0.1380574
H          -2.3793711    -0.4568230    -0.3874000
C           1.4129737    -0.3139710     0.4715036
C           2.8495563    -0.2543904     0.8257376
C          -0.8111240    -1.2459156     0.8688537
H          -1.4608906    -1.9197071     1.4181234
C           0.5455257    -1.1844702     1.1539630
H           0.9532683    -1.8047597     1.9452507
O           3.4249057    -1.3388027     1.4247491
C           3.1917446    -2.6718192     0.9534235
H           2.7510819    -3.2733950     1.7544715
H           4.1648114    -3.0933963     0.6834050
H           2.5312596    -2.6885651     0.0832096
O           3.5487700     0.7338656     0.6639604
23
422_C9H11NO2_11-12-17-18 (60,) energy =    -554.7776727
C           0.8373476     0.5872849    -0.4830288
N           1.6640423     1.4772795    -1.1036282
C           1.2189288     2.4559050    -2.0704235
H           0.4553913     3.1368845    -1.6644352
H           0.8047727     1.9773775    -2.9675227
H           2.0808748     3.0529768    -2.3767879
H           2.5656875     1.6009715    -0.6570557
C          -0.5337011     0.4981162    -0.8269288
H          -0.9309316     1.1458016    -1.6003597
C          -1.3808471    -0.3836784    -0.1733345
H          -2.4303912    -0.4124936    -0.4559986
C           1.3331853    -0.3049607     0.5243470
C           2.7564929    -0.2757520     0.9168050
C          -0.9111335    -1.2146560     0.8523030
H          -1.5858497    -1.8797447     1.3817521
C           0.4348537    -1.1650059     1.1824639
H           0.8159894    -1.7828512     1.9891092
O           3.2477885    -1.3540693     1.6094525
C           3.2037467    -2.6534525     1.0083600
H           3.3154559    -3.3752682     1.8202742
H           4.0417323    -2.7636153     0.3096722
H           2.2643091    -2.8376801     0.4803477
O           3.5081998     0.6645145     0.7099903
23
422_C9H11NO2_11-12-17-18 (75,) energy =    -554.7783698
C           0.8313725     0.5856187    -0.4578906
N           1.6542221     1.4733698    -1.0809413
C           1.2166917     2.4451798    -2.0572901
H           0.4706017     3.1439508    -1.6504349
H           0.7832699     1.9636529    -2.9440823
H           2.0853536     3.0237524    -2.3795827
H           2.5898042     1.5363019    -0.6946545
C          -0.5466073     0.5140743    -0.7808515
H          -0.9502187     1.1768243    -1.5380735
C          -1.3885654    -0.3745801    -0.1315652
H          -2.4421386    -0.3928092    -0.4000046
C           1.3337396    -0.3198533     0.5364973
C           2.7585239    -0.3201574     0.9014500
C          -0.9088851    -1.2311540     0.8697164
H          -1.5799380    -1.9067916     1.3903955
C           0.4392788    -1.1920182     1.1869282
H           0.8318465    -1.8274521     1.9733886
O           3.1897919    -1.3610784     1.6977647
C           3.3400608    -2.6320629     1.0572635
H           3.6267373    -3.3356967     1.8412097
H           4.1346139    -2.5883655     0.3022988
H           2.4084446    -2.9665070     0.5870008
O           3.5641127     0.5400185     0.5773118
23
422_C9H11NO2_11-12-17-18 (90,) energy =    -554.7794246
C           0.8039786     0.5693091    -0.4491997
N           1.6362665     1.4465654    -1.0710206
C           1.2139698     2.4263522    -2.0456450
H           0.4852194     3.1378985    -1.6313733
H           0.7649289     1.9572584    -2.9321458
H           2.0919336     2.9897287    -2.3694778
H           2.6023316     1.4207518    -0.7627188
C          -0.5829111     0.5439726    -0.7409804
H          -0.9851459     1.2358254    -1.4724920
C          -1.4322563    -0.3426876    -0.0993688
H          -2.4912200    -0.3282531    -0.3461484
C           1.3022321    -0.3689903     0.5178623
C           2.7302756    -0.4198301     0.8492215
C          -0.9527203    -1.2444131     0.8623860
H          -1.6283512    -1.9252976     1.3701808
C           0.4005335    -1.2436405     1.1565762
H           0.7974421    -1.9153844     1.9093379
O           3.1065648    -1.4287964     1.7160201
C           3.4759132    -2.6568238     1.0830917
H           3.7744484    -3.3369196     1.8831012
H           4.3210425    -2.5033337     0.4012536
H           2.6323955    -3.0896381     0.5300586
O           3.5830292     0.3469075     0.4227871
23
422_C9H11NO2_11-12-17-18 (105,) energy =    -554.7814879
C           0.7653216     0.5666869    -0.4570804
N           1.6138096     1.4235849    -1.0850793
C           1.2071161     2.4263853    -2.0425900
H           0.5142903     3.1596912    -1.6057911
H           0.7218382     1.9830858    -2.9235588
H           2.0978800     2.9609329    -2.3801145
H           2.5906732     1.3341731    -0.8265283
C          -0.6271102     0.5941488    -0.7201378
H          -1.0209683     1.3124443    -1.4304294
C          -1.4917124    -0.2790752    -0.0806251
H          -2.5539398    -0.2261795    -0.3074913
C           1.2499737    -0.4011129     0.4879240
C           2.6796519    -0.4982143     0.7948429
C          -1.0228545    -1.2186504     0.8497629
H          -1.7103536    -1.8933087     1.3498699
C           0.3341165    -1.2644240     1.1222492
H           0.7258053    -1.9682733     1.8475083
O           3.0158338    -1.4869059     1.6969525
C           3.6329320    -2.6391853     1.1157975
H           3.9431073    -3.2749757     1.9470134
H           4.5098265    -2.3554304     0.5233927
H           2.9197877    -3.1843275     0.4837208
O           3.5612762     0.1918020     0.2976743
23
422_C9H11NO2_11-12-17-18 (120,) energy =    -554.7848501
C           0.7273795     0.5535361    -0.4680757
N           1.5992434     1.3887026    -1.0944717
C           1.2184627     2.4114506    -2.0412495
H           0.5543238     3.1629078    -1.5916093
H           0.7110634     1.9935783    -2.9226898
H           2.1235745     2.9202341    -2.3805475
H           2.5788331     1.2300413    -0.8846051
C          -0.6672020     0.6442350    -0.7037324
H          -1.0426226     1.3920794    -1.3931743
C          -1.5563994    -0.2056727    -0.0662601
H          -2.6193200    -0.1049301    -0.2728528
C           1.1874703    -0.4519381     0.4489252
C           2.6182192    -0.6107902     0.7285145
C          -1.1102305    -1.1846620     0.8336804
H          -1.8153966    -1.8442800     1.3292928
C           0.2484484    -1.2919120     1.0800663
H           0.6238761    -2.0325656     1.7763398
O           2.9131134    -1.6002291     1.6351057
C           3.7561748    -2.6463974     1.1398464
H           4.0067219    -3.2703853     1.9993420
H           4.6697911    -2.2375513     0.6980358
H           3.2188204    -3.2462051     0.3946716
O           3.5214867     0.0181001     0.1873856
23
422_C9H11NO2_11-12-17-18 (135,) energy =    -554.7890131
C           0.6995673     0.5413233    -0.4699545
N           1.5923551     1.3521712    -1.1004838
C           1.2334329     2.3995689    -2.0283879
H           0.6055292     3.1691454    -1.5579066
H           0.6955876     2.0127233    -2.9062050
H           2.1507614     2.8793964    -2.3770660
H           2.5688108     1.1416316    -0.9255735
C          -0.6944417     0.6926962    -0.6756558
H          -1.0520367     1.4663118    -1.3458512
C          -1.6056954    -0.1310339    -0.0346804
H          -2.6673479     0.0159894    -0.2188380
C           1.1351814    -0.4961109     0.4219384
C           2.5654953    -0.7128927     0.6735668
C          -1.1824055    -1.1432648     0.8385197
H          -1.9033933    -1.7847987     1.3351624
C           0.1756475    -1.3096226     1.0556035
H           0.5327667    -2.0815312     1.7269867
O           2.8241908    -1.7091807     1.5732130
C           3.8662547    -2.6211067     1.2034788
H           4.0204240    -3.2685540     2.0679788
H           4.7890963    -2.0880279     0.9619239
H           3.5507863    -3.2220376     0.3425808
O           3.4831151    -0.1296031     0.1036242
23
422_C9H11NO2_11-12-17-18 (150,) energy =    -554.7931815
C           0.6826567     0.5214873    -0.4861533
N           1.5900190     1.3066846    -1.1299008
C           1.2474814     2.3792509    -2.0346238
H           0.6653950     3.1677875    -1.5372282
H           0.6690511     2.0261917    -2.9009538
H           2.1731523     2.8261408    -2.4045349
H           2.5613936     1.0516901    -0.9902705
C          -0.7090186     0.7335434    -0.6486774
H          -1.0522325     1.5324052    -1.2963995
C          -1.6358438    -0.0623808     0.0052974
H          -2.6952391     0.1311793    -0.1458503
C           1.0990702    -0.5463532     0.3770073
C           2.5281500    -0.8213901     0.5865114
C          -1.2302424    -1.1057527     0.8491320
H          -1.9626710    -1.7265026     1.3553677
C           0.1257926    -1.3313076     1.0240468
H           0.4675257    -2.1313199     1.6702426
O           2.7641178    -1.8348752     1.4621995
C           3.9650917    -2.5831748     1.2299425
H           3.9629136    -3.3789832     1.9759839
H           4.8517361    -1.9550399     1.3467684
H           3.9581453    -3.0098246     0.2217912
O           3.4545611    -0.2690428    -0.0019868
23
422_C9H11NO2_11-12-17-18 (165,) energy =    -554.7962823
C           0.6554705     0.4925463    -0.4926721
N           1.5691236     1.2587695    -1.1510665
C           1.2357545     2.3618637    -2.0215466
H           0.6956485     3.1587049    -1.4907048
H           0.6200554     2.0468922    -2.8767045
H           2.1643498     2.7855182    -2.4110312
H           2.5369663     0.9823270    -1.0299742
C          -0.7327352     0.7509164    -0.6127737
H          -1.0679478     1.5702031    -1.2388145
C          -1.6664226    -0.0253226     0.0549667
H          -2.7227859     0.2042168    -0.0634459
C           1.0607651    -0.5998190     0.3435167
C           2.4869724    -0.9206279     0.5108261
C          -1.2711082    -1.0935653     0.8717699
H          -2.0084765    -1.6985458     1.3897892
C           0.0816028    -1.3643040     1.0051100
H           0.4138247    -2.1850129     1.6301773
O           2.7094753    -1.9578806     1.3556182
C           4.0241906    -2.5269637     1.3007709
H           4.0014655    -3.3765604     1.9844376
H           4.7786965    -1.8021342     1.6175830
H           4.2566981    -2.8589647     0.2847966
O           3.4190371    -0.3652608    -0.0669219
23
422_C9H11NO2_11-12-17-18 (180,) energy =    -554.7974024
C           0.6430334     0.4790603    -0.5142748
N           1.5599451     1.2281040    -1.1877593
C           1.2369189     2.3643041    -2.0184990
H           0.7417192     3.1657641    -1.4515357
H           0.5836053     2.0913339    -2.8598149
H           2.1663354     2.7655404    -2.4291947
H           2.5250355     0.9381827    -1.0769125
C          -0.7396107     0.7808022    -0.5895743
H          -1.0673039     1.6200854    -1.1926836
C          -1.6770864     0.0221289     0.0928932
H          -2.7289454     0.2853067     0.0095076
C           1.0387230    -0.6379170     0.2932703
C           2.4590105    -1.0039558     0.4135620
C          -1.2909455    -1.0700683     0.8817627
H          -2.0309734    -1.6597598     1.4134324
C           0.0562264    -1.3836891     0.9707693
H           0.3805658    -2.2233348     1.5745501
O           2.6701470    -2.0773766     1.2129640
C           4.0391076    -2.4748705     1.3631778
H           4.0183715    -3.3394373     2.0278112
H           4.6311550    -1.6674817     1.8027118
H           4.4727674    -2.7447488     0.3963892
O           3.3978101    -0.4288322    -0.1335845
