17
069_C8H6N2O_4-6-13-12 (-165,) energy =    -493.1673834
C           5.5003111     1.4122698     1.3578481
H           6.2104308     2.1706986     1.6731049
C           5.7535982     0.0548919     1.5480300
H           6.6752346    -0.2789626     2.0167943
C           4.8073112    -0.8725709     1.1215284
H           4.9670750    -1.9377115     1.2462637
C           3.6299753    -0.3995320     0.5211103
N           3.3777254     0.9066597     0.3311043
C           4.2992692     1.7781020     0.7437363
H           4.0653439     2.8283408     0.5763534
C           1.0079737    -2.3665169    -0.9118840
H           0.1312903    -2.5033193    -1.5290749
N           1.6043294    -1.1268440    -0.7620919
C           2.6102692    -1.3392333     0.0371306
O           2.7319314    -2.6474154     0.4264619
C           1.6948595    -3.2894687    -0.1903694
H           1.6026858    -4.3479946    -0.0066961
17
069_C8H6N2O_4-6-13-12 (-150,) energy =    -493.1663033
C           5.5019559     1.4065146     1.3611273
H           6.2172627     2.1625238     1.6704714
C           5.7822099     0.0468834     1.4862038
H           6.7310837    -0.2907869     1.8939022
C           4.8279915    -0.8770103     1.0690969
H           5.0074339    -1.9441089     1.1412381
C           3.6158144    -0.3984173     0.5488497
N           3.3383738     0.9098287     0.4191613
C           4.2684897     1.7786754     0.8198519
H           4.0137875     2.8310429     0.7046051
C           1.0810767    -2.4005967    -0.9886041
H           0.2823629    -2.5689015    -1.6970776
N           1.7111423    -1.1723426    -0.8821127
C           2.5964942    -1.3371817     0.0577287
O           2.6139998    -2.6045138     0.5777519
C           1.6323225    -3.2697285    -0.1029988
H           1.4681943    -4.3003088     0.1684015
17
069_C8H6N2O_4-6-13-12 (-135,) energy =    -493.1644927
C           5.5056751     1.4025444     1.3658308
H           6.2253802     2.1557283     1.6719813
C           5.8098126     0.0434132     1.4208799
H           6.7820646    -0.2961565     1.7672831
C           4.8481890    -0.8761840     1.0104843
H           5.0440395    -1.9430078     1.0282645
C           3.6064817    -0.3945760     0.5708992
N           3.3068043     0.9130513     0.5052300
C           4.2440085     1.7789899     0.8984824
H           3.9712626     2.8313497     0.8382295
C           1.1656313    -2.4466120    -1.0536321
H           0.4531311    -2.6591338    -1.8380610
N           1.8366069    -1.2359141    -0.9893536
C           2.5866512    -1.3320348     0.0690572
O           2.4853999    -2.5402967     0.7059627
C           1.5633567    -3.2379988    -0.0251097
H           1.3172937    -4.2279644     0.3242931
17
069_C8H6N2O_4-6-13-12 (-120,) energy =    -493.1621685
C           5.4972270     1.3999842     1.3797634
H           6.2133429     2.1533928     1.6938528
C           5.8323961     0.0473812     1.3524459
H           6.8255059    -0.2864152     1.6402362
C           4.8727424    -0.8718222     0.9353324
H           5.0904513    -1.9339827     0.8904493
C           3.6050437    -0.3970499     0.5729242
N           3.2751344     0.9041097     0.5846693
C           4.2099895     1.7709034     0.9845288
H           3.9133167     2.8183936     0.9888517
C           1.2489928    -2.5095194    -1.1064648
H           0.6267336    -2.7791704    -1.9479724
N           1.9843384    -1.3333403    -1.0935175
C           2.5872641    -1.3370230     0.0575879
O           2.3351085    -2.4539100     0.8077531
C           1.4660587    -3.1888610     0.0476596
H           1.1154719    -4.1156215     0.4729544
17
069_C8H6N2O_4-6-13-12 (-105,) energy =    -493.1600549
C           5.4890717     1.4082930     1.4098871
H           6.1852828     2.1687881     1.7506568
C           5.8774716     0.0763094     1.2803116
H           6.8921971    -0.2337046     1.5141972
C           4.9397126    -0.8528036     0.8342516
H           5.1981918    -1.8997871     0.7112009
C           3.6447269    -0.4087017     0.5427716
N           3.2616661     0.8722115     0.6575912
C           4.1746792     1.7502560     1.0850573
H           3.8363746     2.7814002     1.1712360
C           1.3342968    -2.5829830    -1.1362881
H           0.7966056    -2.9259631    -2.0087392
N           2.1836628    -1.4849427    -1.1896770
C           2.6353056    -1.3635548     0.0211047
O           2.1723167    -2.3184598     0.8828173
C           1.3310075    -3.0864971     0.1225829
H           0.8369370    -3.9032859     0.6239551
17
069_C8H6N2O_4-6-13-12 (-90,) energy =    -493.1595321
C           5.4600651     1.4107103     1.4449925
H           6.1191464     2.1876410     1.8207928
C           5.9265368     0.1208853     1.2005874
H           6.9656641    -0.1396352     1.3816855
C           5.0317621    -0.8325658     0.7172056
H           5.3492370    -1.8490003     0.5072600
C           3.7048611    -0.4512839     0.4943578
N           3.2426516     0.7855773     0.7340139
C           4.1140738     1.6880216     1.1962862
H           3.7138426     2.6839701     1.3779776
C           1.4101628    -2.6772129    -1.1456264
H           0.9501029    -3.1088779    -2.0230084
N           2.4119331    -1.7182080    -1.2449046
C           2.7162741    -1.4381806    -0.0149877
O           1.9942934    -2.1383238     0.9081394
C           1.1598516    -2.9278965     0.1626905
H           0.4905138    -3.5732725     0.7086914
17
069_C8H6N2O_4-6-13-12 (-75,) energy =    -493.1610668
C           5.4466191     1.4095242     1.4606377
H           6.0867872     2.1969922     1.8469800
C           5.9598240     0.1598053     1.1199669
H           7.0174974    -0.0589628     1.2379278
C           5.0866144    -0.8107393     0.6315893
H           5.4373540    -1.7988267     0.3518433
C           3.7342891    -0.4823223     0.4908203
N           3.2251872     0.7116212     0.8345166
C           4.0766287     1.6302968     1.3008910
H           3.6393376     2.5920119     1.5637556
C           1.4917394    -2.7778798    -1.1142843
H           1.1091976    -3.3041747    -1.9771036
N           2.5948675    -1.9378232    -1.2022576
C           2.7633945    -1.4942995     0.0073218
O           1.8426561    -1.9593424     0.8999799
C           1.0381241    -2.7854562     0.1635321
H           0.2364451    -3.2757196     0.6923241
17
069_C8H6N2O_4-6-13-12 (-60,) energy =    -493.1637402
C           5.4443594     1.4048481     1.4634072
H           6.0856637     2.1931110     1.8461172
C           5.9692286     0.1847964     1.0403727
H           7.0370860    -0.0093265     1.0901581
C           5.0954267    -0.7896577     0.5635027
H           5.4520007    -1.7562884     0.2235382
C           3.7282322    -0.4923910     0.5116110
N           3.2084240     0.6701048     0.9383844
C           4.0619628     1.5921297     1.3936641
H           3.6159544     2.5288706     1.7236526
C           1.5744378    -2.8746066    -1.0723555
H           1.2737514    -3.4933450    -1.9057943
N           2.7296066    -2.1069213    -1.1129789
C           2.7683321    -1.5144270     0.0452980
O           1.7083809    -1.8079628     0.8503264
C           0.9567705    -2.6866207     0.1211111
H           0.0627099    -3.0633933     0.5916031
17
069_C8H6N2O_4-6-13-12 (-45,) energy =    -493.1666356
C           5.4522978     1.3987100     1.4662749
H           6.1014933     2.1828353     1.8440427
C           5.9716893     0.2051962     0.9656746
H           7.0436348     0.0286779     0.9482682
C           5.0894964    -0.7659124     0.5004165
H           5.4391240    -1.7125618     0.1027008
C           3.7155749    -0.4913524     0.5372087
N           3.2022965     0.6449520     1.0368040
C           4.0654063     1.5630866     1.4809714
H           3.6238833     2.4783809     1.8717623
C           1.6481348    -2.9605176    -1.0147674
H           1.4210795    -3.6672828    -1.8001631
N           2.8348042    -2.2446611    -0.9975369
C           2.7596407    -1.5129090     0.0787081
O           1.5963395    -1.6690907     0.7693442
C           0.8980594    -2.6046844     0.0595713
H          -0.0655261    -2.8880069     0.4518400
17
069_C8H6N2O_4-6-13-12 (-30,) energy =    -493.1690701
C           5.4494121     1.3962245     1.4768724
H           6.1049428     2.1759675     1.8526700
C           5.9610021     0.2316975     0.9034588
H           7.0333256     0.0754270     0.8243478
C           5.0732146    -0.7356489     0.4436850
H           5.4140804    -1.6603371    -0.0089111
C           3.6978290    -0.4874029     0.5630854
N           3.1928553     0.6221364     1.1270538
C           4.0627835     1.5365393     1.5650776
H           3.6271987     2.4289060     2.0116662
C           1.7053478    -3.0406758    -0.9421616
H           1.5388331    -3.8298357    -1.6615081
N           2.9111695    -2.3648221    -0.8649481
C           2.7436016    -1.5037375     0.1012792
O           1.5041045    -1.5436926     0.6618468
C           0.8525158    -2.5361030    -0.0130055
H          -0.1618978    -2.7405318     0.2899955
17
069_C8H6N2O_4-6-13-12 (-15,) energy =    -493.1706316
C           5.4546519     1.3897656     1.4853331
H           6.1135538     2.1663073     1.8618281
C           5.9575929     0.2585997     0.8410286
H           7.0273353     0.1273694     0.7030896
C           5.0665651    -0.7053952     0.3821189
H           5.4001792    -1.6041968    -0.1244469
C           3.6939284    -0.4911162     0.5808313
N           3.1975915     0.5887466     1.2067516
C           4.0714533     1.5006632     1.6413366
H           3.6419590     2.3669987     2.1418878
C           1.7488038    -3.1156678    -0.8587766
H           1.6245826    -3.9802379    -1.4952028
N           2.9699418    -2.4806846    -0.7195554
C           2.7388121    -1.5009050     0.1123324
O           1.4455036    -1.4318314     0.5293824
C           0.8242957    -2.4730109    -0.0981249
H          -0.2268123    -2.6014402     0.1050850
17
069_C8H6N2O_4-6-13-12 (0,) energy =    -493.1711669
C           5.4548486     1.3805137     1.5019711
H           6.1170814     2.1531057     1.8806494
C           5.9471832     0.2868560     0.7881261
H           7.0112415     0.1833811     0.5940578
C           5.0530741    -0.6727392     0.3266916
H           5.3776561    -1.5428473    -0.2328931
C           3.6879795    -0.4965975     0.6015575
N           3.2014893     0.5510048     1.2871930
C           4.0781728     1.4605821     1.7209480
H           3.6565929     2.2987245     2.2735196
C           1.7608566    -3.1763205    -0.7578736
H           1.6569899    -4.1056800    -1.2995398
N           2.9931511    -2.5817210    -0.5562947
C           2.7295918    -1.4979213     0.1232171
O           1.4059135    -1.3286841     0.3888163
C           0.7983303    -2.4099707    -0.1808731
H          -0.2738103    -2.4687178    -0.0826040
17
069_C8H6N2O_4-6-13-12 (15,) energy =    -493.1706316
C           5.4586754     1.3704616     1.5176809
H           6.1184761     2.1426917     1.9014008
C           5.9447079     0.3204309     0.7374104
H           7.0011405     0.2530684     0.4924414
C           5.0526764    -0.6387488     0.2704320
H           5.3733673    -1.4755386    -0.3400525
C           3.6981460    -0.5113540     0.6147452
N           3.2163510     0.4987302     1.3576002
C           4.0903791     1.4098496     1.7935207
H           3.6735477     2.2154228     2.3958971
C           1.7739351    -3.2362676    -0.6566754
H           1.6743671    -4.2191409    -1.0948498
N           3.0110017    -2.6777186    -0.3893675
C           2.7402547    -1.5078280     0.1239341
O           1.4079589    -1.2516689     0.2274686
C           0.8018833    -2.3654644    -0.2783489
H          -0.2762684    -2.3641208    -0.2926104
17
069_C8H6N2O_4-6-13-12 (30,) energy =    -493.1690701
C           5.4557857     1.3656381     1.5281285
H           6.1127639     2.1384356     1.9155651
C           5.9338077     0.3621913     0.6847780
H           6.9793860     0.3342598     0.3905975
C           5.0447377    -0.5990011     0.2146913
H           5.3599290    -1.4004893    -0.4443624
C           3.7055780    -0.5245880     0.6254000
N           3.2297857     0.4449206     1.4240306
C           4.0996141     1.3598019     1.8612526
H           3.6894314     2.1302747     2.5121101
C           1.7546962    -3.2774760    -0.5453338
H           1.6369854    -4.3008261    -0.8722260
N           2.9924579    -2.7548913    -0.2112727
C           2.7466343    -1.5182894     0.1256652
O           1.4291140    -1.1838412     0.0588099
C           0.8072061    -2.3186763    -0.3773684
H          -0.2613980    -2.2630657    -0.5101398
17
069_C8H6N2O_4-6-13-12 (45,) energy =    -493.1666356
C           5.4607982     1.3579231     1.5346244
H           6.1117009     2.1338562     1.9261205
C           5.9301051     0.4047439     0.6312730
H           6.9619341     0.4207299     0.2912694
C           5.0470909    -0.5624239     0.1594109
H           5.3585185    -1.3257674    -0.5454878
C           3.7271891    -0.5470838     0.6306023
N           3.2578489     0.3783790     1.4835248
C           4.1203028     1.2996623     1.9224153
H           3.7169148     2.0319623     2.6198668
C           1.7206112    -3.3083084    -0.4319422
H           1.5646171    -4.3560712    -0.6458969
N           2.9548587    -2.8207604    -0.0321150
C           2.7654116    -1.5406034     0.1251179
O           1.4862065    -1.1406051    -0.1162871
C           0.8311396    -2.2835638    -0.4785590
H          -0.2125070    -2.1827038    -0.7300997
17
069_C8H6N2O_4-6-13-12 (60,) energy =    -493.1637402
C           5.4542221     1.3575199     1.5427194
H           6.0969630     2.1388887     1.9369825
C           5.9119466     0.4596699     0.5797419
H           6.9256904     0.5252174     0.1943737
C           5.0388777    -0.5183021     0.1087675
H           5.3444609    -1.2402472    -0.6412391
C           3.7440899    -0.5684869     0.6391321
N           3.2844062     0.3054942     1.5493960
C           4.1359106     1.2372813     1.9883160
H           3.7414845     1.9264987     2.7331024
C           1.6683165    -3.3250924    -0.3174355
H           1.4585896    -4.3803089    -0.4194278
N           2.8878725    -2.8663774     0.1597122
C           2.7798015    -1.5694646     0.1375295
O           1.5660098    -1.1247778    -0.2945508
C           0.8685023    -2.2630537    -0.5887008
H          -0.1314836    -2.1315308    -0.9700071
17
069_C8H6N2O_4-6-13-12 (75,) energy =    -493.1610668
C           5.4574389     1.3576026     1.5476474
H           6.0983245     2.1416272     1.9397602
C           5.8856169     0.5158970     0.5232313
H           6.8743770     0.6278178     0.0870265
C           5.0156373    -0.4701454     0.0608242
H           5.3022765    -1.1506376    -0.7343871
C           3.7548704    -0.5810829     0.6563217
N           3.3241190     0.2368853     1.6300744
C           4.1711987     1.1764900     2.0613765
H           3.8001674     1.8202488     2.8570696
C           1.6055520    -3.3240240    -0.1990609
H           1.3311458    -4.3692212    -0.1923080
N           2.7906586    -2.8773504     0.3721931
C           2.7840399    -1.5933681     0.1733394
O           1.6718727    -1.1398169    -0.4733740
C           0.9296336    -2.2648519    -0.7088921
H          -0.0029065    -2.1271626    -1.2324176
17
069_C8H6N2O_4-6-13-12 (90,) energy =    -493.1595321
C           5.4735459     1.3460141     1.5534124
H           6.1336893     2.1178462     1.9377577
C           5.8342490     0.5637373     0.4584629
H           6.7889146     0.7085184    -0.0396387
C           4.9441346    -0.4120735     0.0125502
H           5.1825350    -1.0490555    -0.8332782
C           3.7288224    -0.5662669     0.6870457
N           3.3674156     0.1868764     1.7373118
C           4.2330127     1.1172703     2.1527475
H           3.9166288     1.7108632     3.0087025
C           1.5423928    -3.3117288    -0.0823141
H           1.2050975    -4.3324930     0.0275103
N           2.6433470    -2.8286750     0.6160048
C           2.7480998    -1.5909003     0.2409377
O           1.7992447    -1.2023540    -0.6603537
C           1.0333576    -2.3208912    -0.8545287
H           0.2102703    -2.2284777    -1.5449108
17
069_C8H6N2O_4-6-13-12 (105,) energy =    -493.1600549
C           5.5080020     1.3174435     1.5621342
H           6.2090115     2.0549098     1.9414964
C           5.7670098     0.6063709     0.3920424
H           6.6828960     0.7706507    -0.1688883
C           4.8307463    -0.3299148    -0.0419988
H           4.9924190    -0.9123548    -0.9435267
C           3.6658729    -0.5101746     0.7128193
N           3.4092334     0.1640836     1.8442648
C           4.3191546     1.0569610     2.2468759
H           4.0844289     1.5910642     3.1659911
C           1.4767415    -3.2665113     0.0091596
H           1.0722680    -4.2487498     0.2079721
N           2.4354517    -2.6931764     0.8350695
C           2.6704881    -1.5323792     0.3040178
O           1.9583534    -1.2917251    -0.8377793
C           1.1907654    -2.4135181    -1.0051941
H           0.5285374    -2.4233802    -1.8560645
17
069_C8H6N2O_4-6-13-12 (120,) energy =    -493.1621685
C           5.5205362     1.2881195     1.5672301
H           6.2450728     2.0011169     1.9490422
C           5.7067402     0.6503547     0.3419940
H           6.5891505     0.8477682    -0.2604099
C           4.7448994    -0.2583484    -0.0927185
H           4.8509048    -0.7844783    -1.0358764
C           3.6228774    -0.4826300     0.7163385
N           3.4390719     0.1174223     1.9029924
C           4.3741311     0.9832323     2.3045027
H           4.1967097     1.4584712     3.2677985
C           1.3959024    -3.2144739     0.0748853
H           0.9110911    -4.1436852     0.3386613
N           2.2395887    -2.5581896     0.9590699
C           2.6197853    -1.4930770     0.3190991
O           2.1164304    -1.4045444    -0.9507680
C           1.3252819    -2.5133103    -1.0844284
H           0.8051985    -2.6267135    -2.0221516
17
069_C8H6N2O_4-6-13-12 (135,) energy =    -493.1644927
C           5.5315971     1.2781412     1.5743095
H           6.2610571     1.9845108     1.9589128
C           5.6718270     0.7055519     0.3112795
H           6.5225965     0.9489352    -0.3192222
C           4.7067998    -0.1977080    -0.1264964
H           4.7795723    -0.6739183    -1.0984606
C           3.6249178    -0.4830468     0.7191580
N           3.4854001     0.0560237     1.9414287
C           4.4238610     0.9159275     2.3447964
H           4.2820638     1.3399056     3.3375794
C           1.3116477    -3.1472794     0.1205335
H           0.7344620    -4.0091234     0.4242314
N           2.0868427    -2.4366990     1.0229069
C           2.6176461    -1.4807652     0.3182954
O           2.2724430    -1.5183859    -1.0065506
C           1.4282645    -2.5897261    -1.1114858
H           1.0172704    -2.7882431    -2.0883870
17
069_C8H6N2O_4-6-13-12 (150,) energy =    -493.1663033
C           5.5292452     1.2755543     1.5805923
H           6.2541330     1.9855851     1.9669878
C           5.6333769     0.7610748     0.2893717
H           6.4503858     1.0561775    -0.3633239
C           4.6763398    -0.1492891    -0.1504099
H           4.7231865    -0.5801046    -1.1445461
C           3.6376230    -0.5030700     0.7242258
N           3.5315173    -0.0170024     1.9723362
C           4.4620157     0.8500047     2.3761111
H           4.3478290     1.2280859     3.3908271
C           1.2221865    -3.0777220     0.1461127
H           0.5517424    -3.8615444     0.4691176
N           1.9516397    -2.3263963     1.0518383
C           2.6287643    -1.4920317     0.3172231
O           2.4144423    -1.6469062    -1.0270020
C           1.5063643    -2.6652931    -1.1159111
H           1.1852066    -2.9423440    -2.1072700
17
069_C8H6N2O_4-6-13-12 (165,) energy =    -493.1673834
C           5.5288541     1.2752904     1.5874019
H           6.2478611     1.9910685     1.9741343
C           5.5950657     0.8156277     0.2732007
H           6.3747909     1.1627545    -0.3992159
C           4.6470988    -0.1037692    -0.1668203
H           4.6653857    -0.4900082    -1.1797829
C           3.6563740    -0.5262117     0.7333990
N           3.5856057    -0.0908913     2.0027914
C           4.5058406     0.7868275     2.4049077
H           4.4211855     1.1207672     3.4378925
C           1.1405080    -3.0024908     0.1538686
H           0.3807085    -3.7001758     0.4765975
N           1.8303949    -2.2116457     1.0558036
C           2.6457424    -1.5094518     0.3223780
O           2.5525075    -1.7864153    -1.0163975
C           1.5811993    -2.7440416    -1.1043964
H           1.3432577    -3.1030767    -2.0929241
17
069_C8H6N2O_4-6-13-12 (180,) energy =    -493.1677417
C           5.5289440     1.2745047     1.5908478
H           6.2432579     1.9955658     1.9764085
C           5.5542606     0.8679448     0.2578306
H           6.2940541     1.2652955    -0.4316866
C           4.6136963    -0.0593132    -0.1813445
H           4.5987780    -0.4021778    -1.2097705
C           3.6750348    -0.5479372     0.7410420
N           3.6428449    -0.1625367     2.0280880
C           4.5528246     0.7264736     2.4278485
H           4.5005568     1.0180909     3.4757188
C           1.0664973    -2.9211503     0.1418735
H           0.2250700    -3.5277032     0.4457149
N           1.7207462    -2.0883462     1.0320575
C           2.6620646    -1.5273311     0.3282424
O           2.6804728    -1.9323466    -0.9807972
C           1.6501361    -2.8245260    -1.0806502
H           1.4880345    -3.2703177    -2.0489927
