23
104_C10H10N2S_11-0-19-18 (-165,) energy =    -894.7619837
N           1.9266324    -1.1171939    -0.2600527
C           0.9059311    -0.9595612     0.7803868
H           1.3883584    -1.0537513     1.7541240
H           0.1366772    -1.7279682     0.6695091
H           0.4178206     0.0206386     0.7114652
C           5.9924091    -0.6089477     0.7905303
H           7.0347469    -0.4796012     1.0678495
C           5.2368625    -1.6370386     1.3581895
H           5.6905900    -2.3160704     2.0749664
C           3.9024213    -1.8117536     0.9948592
H           3.3194789    -2.6265026     1.4146889
C           3.3027757    -0.9441833     0.0712661
C           4.0593576     0.0955600    -0.4870082
H           3.5924854     0.7803637    -1.1877693
C           5.4000515     0.2515709    -0.1353842
H           5.9772037     1.0602168    -0.5755180
C           0.0411917    -1.2464539    -3.2321290
H          -0.9603530    -1.1643966    -3.6406309
N           0.2180577    -1.0458361    -1.8795727
C           1.4791113    -1.1737236    -1.5567381
S           2.5577129    -1.5519142    -2.9213428
C           1.1520266    -1.5211617    -3.9644685
H           1.2464616    -1.6795401    -5.0293681
23
104_C10H10N2S_11-0-19-18 (-150,) energy =    -894.7615661
N           1.9361123    -1.2679464    -0.2706795
C           0.9280165    -0.9571751     0.7495434
H           1.3411438    -1.2028692     1.7295671
H           0.0318412    -1.5523346     0.5653306
H           0.6454612     0.1040066     0.7328655
C           5.9675729    -0.5226652     0.7817606
H           7.0002547    -0.3342374     1.0615395
C           5.2691495    -1.5880337     1.3538901
H           5.7577156    -2.2360470     2.0764545
C           3.9474632    -1.8382033     0.9875471
H           3.4054802    -2.6792561     1.4105268
C           3.3058653    -1.0118056     0.0559292
C           4.0047050     0.0635357    -0.5090195
H           3.5045590     0.7115418    -1.2221616
C           5.3326125     0.2978302    -0.1525640
H           5.8669384     1.1328930    -0.5975097
C           0.1144863    -1.1117579    -3.2907973
H          -0.8481315    -0.8686776    -3.7275449
N           0.2912584    -0.9197087    -1.9365695
C           1.5020876    -1.2552304    -1.5777299
S           2.5350842    -1.8282454    -2.9088150
C           1.1837654    -1.5759767    -3.9896304
H           1.2778722    -1.7555131    -5.0512986
23
104_C10H10N2S_11-0-19-18 (-135,) energy =    -894.7602796
N           1.9335171    -1.3887746    -0.2534536
C           0.9346987    -1.0345659     0.7655057
H           1.3199733    -1.3278169     1.7440753
H           0.0069403    -1.5717178     0.5605992
H           0.7180117     0.0419038     0.7706118
C           5.9385666    -0.4627278     0.7698995
H           6.9640678    -0.2287462     1.0416036
C           5.2737718    -1.5253598     1.3858939
H           5.7819326    -2.1261775     2.1352989
C           3.9619784    -1.8339877     1.0295202
H           3.4475850    -2.6746661     1.4864149
C           3.2953734    -1.0693961     0.0632997
C           3.9598154     0.0027403    -0.5466473
H           3.4409942     0.6032446    -1.2876695
C           5.2785487     0.2953577    -0.1989274
H           5.7862390     1.1274110    -0.6794062
C           0.1711341    -0.9223613    -3.2880610
H          -0.7281439    -0.5103589    -3.7326875
N           0.3713980    -0.7594698    -1.9333091
C           1.4962429    -1.3091075    -1.5629324
S           2.4148517    -2.0671254    -2.8836127
C           1.1476577    -1.5717619    -3.9769941
H           1.2160575    -1.7661893    -5.0381541
23
104_C10H10N2S_11-0-19-18 (-120,) energy =    -894.7583522
N           1.9347717    -1.4980398    -0.2448405
C           0.9351715    -1.1352094     0.7739755
H           1.3018785    -1.4575515     1.7507010
H          -0.0028252    -1.6484371     0.5528765
H           0.7452671    -0.0542901     0.7985181
C           5.9089500    -0.4110546     0.7532362
H           6.9266067    -0.1375713     1.0174156
C           5.2695439    -1.4624335     1.4144615
H           5.7901553    -2.0150448     2.1919947
C           3.9686992    -1.8227208     1.0680117
H           3.4768134    -2.6572018     1.5597794
C           3.2853514    -1.1210275     0.0659525
C           3.9237978    -0.0606528    -0.5898593
H           3.3917342     0.4926982    -1.3577283
C           5.2329451     0.2830745    -0.2513137
H           5.7200249     1.1055906    -0.7683222
C           0.2808354    -0.7555030    -3.2981783
H          -0.5231081    -0.1898457    -3.7560160
N           0.4980559    -0.6191782    -1.9436059
C           1.4962290    -1.3646314    -1.5561795
S           2.2640395    -2.2953423    -2.8590418
C           1.1290834    -1.5814856    -3.9705310
H           1.1661557    -1.7975237    -5.0292007
23
104_C10H10N2S_11-0-19-18 (-105,) energy =    -894.7561938
N           1.9394167    -1.5750163    -0.2360325
C           0.9325521    -1.2386017     0.7874201
H           1.2941897    -1.5778347     1.7603914
H           0.0008306    -1.7590504     0.5540967
H           0.7333676    -0.1601882     0.8330110
C           5.8861163    -0.3605849     0.7358616
H           6.8973492    -0.0573334     0.9920507
C           5.2596422    -1.3902844     1.4427680
H           5.7846677    -1.8968258     2.2483283
C           3.9680211    -1.7896595     1.1068897
H           3.4903984    -2.6107561     1.6339735
C           3.2769427    -1.1479428     0.0693981
C           3.9022537    -0.1098905    -0.6328406
H           3.3657448     0.3999981    -1.4267730
C           5.2039195     0.2717129    -0.3038899
H           5.6795607     1.0767098    -0.8579642
C           0.4132691    -0.6069852    -3.3048242
H          -0.2704080     0.0888852    -3.7782550
N           0.6562738    -0.4846873    -1.9543221
C           1.4934630    -1.3978274    -1.5467006
S           2.0633238    -2.4856209    -2.8237322
C           1.0887235    -1.5969949    -3.9547239
H           1.0747401    -1.8439109    -5.0073075
23
104_C10H10N2S_11-0-19-18 (-90,) energy =    -894.7545125
N           1.9831668    -1.5011273    -0.2482773
C           1.0150711    -1.8681661     0.7848423
H           0.9149103    -1.0787215     1.5412647
H           1.3054637    -2.8009305     1.2836755
H           0.0438714    -2.0210708     0.3126869
C           5.8961269    -0.3178858     0.8557514
H           6.9012176    -0.0196715     1.1388677
C           5.0608212    -0.9581385     1.7694613
H           5.4114604    -1.1654900     2.7773787
C           3.7686077    -1.3442858     1.4132951
H           3.1474796    -1.8447031     2.1470684
C           3.2806833    -1.0915080     0.1181764
C           4.1247401    -0.4369458    -0.7990123
H           3.7665980    -0.2085530    -1.7966729
C           5.4130813    -0.0621734    -0.4293821
H           6.0420761     0.4443168    -1.1570865
C           0.4125593    -0.1499865    -3.1446873
H          -0.1542383     0.6857768    -3.5391055
N           0.8015784    -0.1260197    -1.8262848
C           1.4723606    -1.1976095    -1.5126961
S           1.6763179    -2.3366507    -2.8585568
C           0.7918749    -1.2451179    -3.8683352
H           0.6065419    -1.4555814    -4.9130152
23
104_C10H10N2S_11-0-19-18 (-75,) energy =    -894.7551800
N           1.7807444    -1.0491841    -0.1392918
C           0.9687397    -1.8473226     0.7751997
H           1.0558489    -1.4381657     1.7859124
H           1.2589360    -2.9093222     0.8035671
H          -0.0760399    -1.7776415     0.4677625
C           5.8584371    -0.3639832     0.8184128
H           6.9002552    -0.1821662     1.0658496
C           5.0809568    -1.2105838     1.6045784
H           5.5141259    -1.7032313     2.4713852
C           3.7416145    -1.4509077     1.2903257
H           3.1734385    -2.1319210     1.9128361
C           3.1514801    -0.8316456     0.1760745
C           3.9362562     0.0318506    -0.6097819
H           3.4843109     0.5390358    -1.4534906
C           5.2725556     0.2517182    -0.2906922
H           5.8581264     0.9238927    -0.9127505
C           0.8085930    -0.2619093    -3.4728342
H           0.6504054     0.5462283    -4.1778709
N           1.2265046     0.0450369    -2.1986407
C           1.3676804    -1.0261170    -1.4723890
S           0.9617027    -2.5349150    -2.3413709
C           0.5868331    -1.5806055    -3.7389395
H           0.2093373    -2.0300668    -4.6472110
23
104_C10H10N2S_11-0-19-18 (-60,) energy =    -894.7566665
N           1.7695977    -1.0537897    -0.1896322
C           0.9636543    -1.8455670     0.7357050
H           1.1037312    -1.4611922     1.7491837
H           1.2191611    -2.9166987     0.7308656
H          -0.0894509    -1.7361334     0.4703909
C           5.8272324    -0.3260569     0.8370673
H           6.8623647    -0.1341449     1.1045863
C           5.0717800    -1.2538215     1.5501269
H           5.5160121    -1.8015068     2.3773210
C           3.7414344    -1.5053984     1.2091351
H           3.1919220    -2.2522402     1.7699041
C           3.1386550    -0.8169593     0.1433362
C           3.8994566     0.1276935    -0.5678690
H           3.4357437     0.6781765    -1.3763002
C           5.2289433     0.3569170    -0.2243120
H           5.7980376     1.0915499    -0.7882793
C           0.9641972    -0.3462322    -3.5830156
H           0.9898151     0.4131435    -4.3563805
N           1.4588383    -0.0353221    -2.3375285
C           1.3572559    -1.0441691    -1.5190632
S           0.5873265    -2.4822430    -2.2525440
C           0.4311413    -1.5902183    -3.7346339
H          -0.0643075    -2.0129273    -4.5975827
23
104_C10H10N2S_11-0-19-18 (-45,) energy =    -894.7581707
N           1.8329477    -1.0903517    -0.1528759
C           1.0349638    -1.8486293     0.8063747
H           1.2438303    -1.4786450     1.8123420
H           1.2374169    -2.9302935     0.7804739
H          -0.0246466    -1.6875237     0.5958785
C           5.8675690    -0.2645615     0.8905619
H           6.8961501    -0.0492295     1.1656312
C           5.1536329    -1.2636165     1.5491239
H           5.6240547    -1.8437163     2.3388276
C           3.8328025    -1.5442941     1.1972700
H           3.3151691    -2.3468715     1.7098852
C           3.1973327    -0.8157912     0.1777113
C           3.9160368     0.1974216    -0.4796256
H           3.4314453     0.7662078    -1.2612038
C           5.2384819     0.4562407    -0.1261359
H           5.7764640     1.2437986    -0.6475463
C           1.0925265    -0.4810604    -3.5771720
H           1.2543232     0.1929587    -4.4110270
N           1.6826937    -0.1878908    -2.3696962
C           1.3944636    -1.0862616    -1.4693990
S           0.3128011    -2.3780130    -2.0691852
C           0.3055208    -1.5900055    -3.6210250
H          -0.2922118    -1.9669703    -4.4388433
23
104_C10H10N2S_11-0-19-18 (-30,) energy =    -894.7593871
N           1.8440069    -1.1306764    -0.1739733
C           1.0319057    -1.8391197     0.8103914
H           1.3125609    -1.5007401     1.8090312
H           1.1489450    -2.9320270     0.7596916
H          -0.0225207    -1.5959215     0.6519000
C           5.8434469    -0.2177962     0.9140854
H           6.8632622     0.0195836     1.2034495
C           5.1755458    -1.2929578     1.4980988
H           5.6735979    -1.9089021     2.2423007
C           3.8671344    -1.6012852     1.1255094
H           3.3797919    -2.4602046     1.5739881
C           3.1997898    -0.8256642     0.1635592
C           3.8718587     0.2601905    -0.4208135
H           3.3668973     0.8574483    -1.1666809
C           5.1831998     0.5487662    -0.0477016
H           5.6875841     1.3931884    -0.5101790
C           1.2028706    -0.6372750    -3.6314951
H           1.4951318    -0.0826259    -4.5164213
N           1.8662613    -0.3889171    -2.4522844
C           1.4006508    -1.1295132    -1.4844832
S           0.0566007    -2.1990639    -1.9787887
C           0.1972130    -1.5516982    -3.5916166
H          -0.4734174    -1.8629917    -4.3797574
23
104_C10H10N2S_11-0-19-18 (-15,) energy =    -894.7601362
N           1.8771553    -1.1831876    -0.1842140
C           1.0452689    -1.8383821     0.8196682
H           1.3868914    -1.5385266     1.8109471
H           1.0733330    -2.9352865     0.7474090
H           0.0064607    -1.5109319     0.7064129
C           5.8389689    -0.1646469     0.9288177
H           6.8497193     0.0999034     1.2263013
C           5.2170133    -1.2903994     1.4669071
H           5.7418855    -1.9170805     2.1830977
C           3.9211112    -1.6337432     1.0814910
H           3.4635802    -2.5292869     1.4894202
C           3.2222057    -0.8428769     0.1564597
C           3.8481592     0.2913216    -0.3833155
H           3.3206336     0.8989892    -1.1052577
C           5.1472605     0.6167668     0.0011628
H           5.6176331     1.4990012    -0.4249922
C           1.3036858    -0.7607930    -3.6574119
H           1.6919234    -0.3303719    -4.5741702
N           2.0242980    -0.5919897    -2.4978021
C           1.4255101    -1.1617212    -1.4877886
S          -0.1113558    -1.9654267    -1.9149625
C           0.1369105    -1.4524473    -3.5653570
H          -0.5844534    -1.6835105    -4.3359278
23
104_C10H10N2S_11-0-19-18 (0,) energy =    -894.7602169
N           1.9132669    -1.2588076    -0.2051495
C           1.0488456    -1.8457991     0.8135636
H           1.4541457    -1.6118773     1.7979221
H           0.9587418    -2.9359571     0.7106166
H           0.0452679    -1.4083452     0.7510104
C           5.8290659    -0.1179980     0.9409739
H           6.8281756     0.1781700     1.2477621
C           5.2454273    -1.2737053     1.4581712
H           5.7891066    -1.8917939     2.1677197
C           3.9651901    -1.6575726     1.0585751
H           3.5352380    -2.5758114     1.4466846
C           3.2434023    -0.8768721     0.1435244
C           3.8316934     0.2852968    -0.3774265
H           3.2881295     0.8851834    -1.0949845
C           5.1154092     0.6520223     0.0198460
H           5.5568964     1.5562212    -0.3908108
C           1.3663203    -0.8463665    -3.6791695
H           1.8132390    -0.5299177    -4.6154820
N           2.1278407    -0.7805196    -2.5355475
C           1.4470254    -1.1881547    -1.4988784
S          -0.2175075    -1.7106824    -1.8798288
C           0.0950439    -1.3112769    -3.5514981
H          -0.6639750    -1.4470230    -4.3084151
23
104_C10H10N2S_11-0-19-18 (15,) energy =    -894.7601362
N           2.0911844    -1.6691715    -0.4223934
C           1.4055493    -2.5916582     0.4765000
H           2.1413278    -3.0546144     1.1349572
H           0.9268327    -3.3852063    -0.1068293
H           0.6365174    -2.0986895     1.0886889
C           5.7070737     0.0662132     0.9509025
H           6.6370003     0.4991113     1.3085807
C           4.6854224    -0.2486813     1.8457506
H           4.8084871    -0.0561997     2.9082740
C           3.4889834    -0.7997169     1.3867425
H           2.6941276    -1.0121015     2.0944364
C           3.3034896    -1.0558481     0.0194068
C           4.3331202    -0.7404527    -0.8805800
H           4.1932372    -0.9239907    -1.9367453
C           5.5188620    -0.1795947    -0.4106307
H           6.3071226     0.0578023    -1.1201985
C           0.9442309    -0.1867394    -3.4319468
H           1.2129440     0.4597934    -4.2603343
N           1.8855218    -0.4302368    -2.4587323
C           1.4121988    -1.2256533    -1.5386518
S          -0.2741051    -1.7413172    -1.8230250
C          -0.2645410    -0.7921351    -3.2884720
H          -1.1298204    -0.7546268    -3.9345514
23
104_C10H10N2S_11-0-19-18 (30,) energy =    -894.7593871
N           2.1278236    -1.7166501    -0.4545687
C           1.4129275    -2.5942303     0.4669218
H           2.1389452    -3.1176177     1.0910309
H           0.8539030    -3.3405226    -0.1045779
H           0.7088139    -2.0543757     1.1176824
C           5.6817676     0.1089927     0.9771597
H           6.5949128     0.5656810     1.3482498
C           4.6799301    -0.2872566     1.8617173
H           4.8006338    -0.1340218     2.9309353
C           3.5053858    -0.8709088     1.3867312
H           2.7292766    -1.1440907     2.0934154
C           3.3197856    -1.0775761     0.0100711
C           4.3316606    -0.6823402    -0.8799692
H           4.1930952    -0.8320276    -1.9412942
C           5.4944322    -0.0892136    -0.3918378
H           6.2670505     0.2099786    -1.0953147
C           0.9917050    -0.3233155    -3.5167203
H           1.2946350     0.1879574    -4.4239045
N           1.9573054    -0.6475176    -2.5921614
C           1.4380735    -1.2573720    -1.5623889
S          -0.3291346    -1.4965934    -1.6826779
C          -0.2838497    -0.6992598    -3.2326183
H          -1.1774554    -0.5860206    -3.8296559
23
104_C10H10N2S_11-0-19-18 (45,) energy =    -894.7581705
N           2.1365480    -1.7548629    -0.4674882
C           1.3872530    -2.5865334     0.4699625
H           2.0905867    -3.1795998     1.0582642
H           0.7486840    -3.2716593    -0.0920353
H           0.7564330    -2.0039689     1.1586696
C           5.6440497     0.1480217     0.9906032
H           6.5443914     0.6259039     1.3661353
C           4.6888091    -0.3532509     1.8724984
H           4.8322487    -0.2614988     2.9460217
C           3.5302014    -0.9660983     1.3937258
H           2.7939814    -1.3196215     2.1063503
C           3.3124930    -1.0963853     0.0117992
C           4.2810980    -0.5980153    -0.8762899
H           4.1231297    -0.7001542    -1.9411002
C           5.4260059     0.0235492    -0.3826907
H           6.1622483     0.4025351    -1.0868615
C           1.0277513    -0.4933601    -3.6018304
H           1.3457516    -0.1514240    -4.5804775
N           1.9859688    -0.9057545    -2.7051871
C           1.4500926    -1.2879046    -1.5793547
S          -0.3355471    -1.1887437    -1.5674706
C          -0.2684535    -0.5865150    -3.1990402
H          -1.1699825    -0.3766547    -3.7570860
23
104_C10H10N2S_11-0-19-18 (60,) energy =    -894.7566666
N           2.1913654    -1.7969086    -0.4550003
C           1.4174199    -2.5994961     0.4881680
H           2.0984772    -3.2408882     1.0532217
H           0.7305945    -3.2376387    -0.0707911
H           0.8357854    -1.9948967     1.2014543
C           5.6366884     0.2108898     1.0103555
H           6.5217378     0.7173672     1.3846026
C           4.7333149    -0.3797260     1.8906782
H           4.9025631    -0.3309984     2.9633098
C           3.5933557    -1.0303693     1.4147350
H           2.8997763    -1.4562580     2.1300972
C           3.3434900    -1.1081980     0.0345971
C           4.2626780    -0.5214681    -0.8530145
H           4.0889437    -0.5961217    -1.9187805
C           5.3873750     0.1357838    -0.3619160
H           6.0842041     0.5823467    -1.0666289
C           1.0813856    -0.6713157    -3.6433201
H           1.3789472    -0.4999442    -4.6716673
N           2.0137223    -1.1661742    -2.7610333
C           1.5079678    -1.3201668    -1.5700170
S          -0.2220729    -0.8783966    -1.4676943
C          -0.1753390    -0.4755264    -3.1565740
H          -1.0638060    -0.1599704    -3.6856039
23
104_C10H10N2S_11-0-19-18 (75,) energy =    -894.7551802
N           2.2187860    -1.8226278    -0.4188699
C           1.4318726    -2.6179815     0.5198093
H           2.0941617    -3.3055039     1.0538356
H           0.7080853    -3.2097196    -0.0431314
H           0.8908654    -2.0095352     1.2614083
C           5.6231147     0.2592146     1.0276849
H           6.4985385     0.7870217     1.3947689
C           4.7848391    -0.4211199     1.9072519
H           4.9971887    -0.4237076     2.9733459
C           3.6560902    -1.0990781     1.4416268
H           3.0155533    -1.6002986     2.1575896
C           3.3522229    -1.1136958     0.0702846
C           4.2070718    -0.4352838    -0.8174933
H           4.0009321    -0.4646200    -1.8805203
C           5.3209516     0.2456148    -0.3364760
H           5.9669472     0.7617824    -1.0420918
C           1.0754757    -0.8767789    -3.6553640
H           1.3108617    -0.8930926    -4.7134349
N           1.9651707    -1.4421615    -2.7714874
C           1.5423944    -1.3479425    -1.5438678
S          -0.0473051    -0.5428667    -1.3973417
C          -0.0701782    -0.3655710    -3.1214785
H          -0.9161224     0.0707627    -3.6347626
23
104_C10H10N2S_11-0-19-18 (90,) energy =    -894.7545126
N           1.9988789    -1.4344128    -0.1709352
C           1.4501002    -2.5824945     0.5501843
H           2.1762234    -3.4037080     0.6116949
H           0.5680742    -2.9388755     0.0167473
H           1.1471446    -2.3016245     1.5663226
C           5.6927267     0.2451901     1.0396577
H           6.6373958     0.6792370     1.3535122
C           5.0012099    -0.6316190     1.8736252
H           5.4042683    -0.8882572     2.8501064
C           3.7872852    -1.1929931     1.4773551
H           3.2736065    -1.8671349     2.1528591
C           3.2358631    -0.8844537     0.2203431
C           3.9418255    -0.0049955    -0.6224609
H           3.5522226     0.2323541    -1.6061454
C           5.1496235     0.5501658    -0.2102593
H           5.6746391     1.2239905    -0.8825897
C           1.0043211    -1.3937094    -3.5903033
H           1.0949575    -1.8943478    -4.5476331
N           1.6918856    -1.8943999    -2.5101576
C           1.4781388    -1.1800420    -1.4421491
S           0.3877487     0.1955681    -1.7048187
C           0.2558257    -0.2730694    -3.3650371
H          -0.3430464     0.2862960    -4.0710506
23
104_C10H10N2S_11-0-19-18 (105,) energy =    -894.7561938
N           1.9286016    -1.4412182    -0.1294136
C           1.8422439    -2.8860407     0.1524240
H           2.1485101    -3.0609617     1.1859306
H           2.4800642    -3.4770306    -0.5173867
H           0.8064871    -3.2108628     0.0295126
C           5.6208180     0.3325216     0.9740056
H           6.5636226     0.7859200     1.2668124
C           4.7264377    -0.1223013     1.9464653
H           4.9679207    -0.0181491     3.0009818
C           3.5110851    -0.6916826     1.5732010
H           2.8003467    -1.0173958     2.3274534
C           3.1830402    -0.8322795     0.2173182
C           4.0839667    -0.3842463    -0.7570009
H           3.8411493    -0.5046379    -1.8080485
C           5.2911768     0.2032806    -0.3754044
H           5.9808325     0.5496270    -1.1406948
C           0.6435925    -1.1244237    -3.4358628
H           0.5380547    -1.6090363    -4.4001280
N           1.3156239    -1.7842112    -2.4304081
C           1.3474806    -1.0665945    -1.3418724
S           0.5484315     0.5082469    -1.4841606
C           0.1804180     0.1227157    -3.1378210
H          -0.3364803     0.8213777    -3.7810752
23
104_C10H10N2S_11-0-19-18 (120,) energy =    -894.7583522
N           1.9764147    -1.4696537    -0.1835128
C           1.9118302    -2.9169950     0.0808018
H           2.2344351    -3.0972075     1.1083335
H           2.5506811    -3.4899304    -0.6037912
H           0.8810180    -3.2564020    -0.0390083
C           5.6057684     0.3585211     1.0236773
H           6.5344806     0.8235538     1.3421841
C           4.6733404    -0.0702755     1.9713946
H           4.8708726     0.0652468     3.0313895
C           3.4759368    -0.6554361     1.5641606
H           2.7353611    -0.9654214     2.2960091
C           3.2060592    -0.8348401     0.2009137
C           4.1458708    -0.4133948    -0.7484199
H           3.9445477    -0.5630101    -1.8048269
C           5.3345567     0.1887691    -0.3348329
H           6.0556654     0.5146927    -1.0797182
C           0.4570557    -1.1644708    -3.3785577
H           0.1884791    -1.6929956    -4.2865439
N           1.1236531    -1.8505740    -2.3858084
C           1.3693017    -1.0721288    -1.3680468
S           0.7987362     0.5974373    -1.5685420
C           0.2122332     0.1548157    -3.1475373
H          -0.2521300     0.8814358    -3.7996235
23
104_C10H10N2S_11-0-19-18 (135,) energy =    -894.7602796
N           2.0489922    -1.5082724    -0.2560199
C           1.9788406    -2.9517391     0.0139196
H           2.3340189    -3.1311057     1.0306320
H           2.5913003    -3.5308088    -0.6898834
H           0.9431072    -3.2838415    -0.0767122
C           5.5941960     0.3901741     1.0755946
H           6.5028719     0.8718809     1.4255836
C           4.6232283    -0.0261646     1.9890860
H           4.7702972     0.1356054     3.0535196
C           3.4516037    -0.6335628     1.5402904
H           2.6812072    -0.9369536     2.2435221
C           3.2476228    -0.8463547     0.1707334
C           4.2269080    -0.4375049    -0.7440518
H           4.0755036    -0.6116081    -1.8050230
C           5.3890708     0.1861429    -0.2901380
H           6.1416601     0.5018898    -1.0076553
C           0.2735746    -1.1833465    -3.3014924
H          -0.1590844    -1.7273826    -4.1339434
N           0.9478584    -1.8919853    -2.3292897
C           1.4058674    -1.0899247    -1.4065229
S           1.0468051     0.6299093    -1.6819868
C           0.2288321     0.1679181    -3.1530920
H          -0.2011921     0.9098337    -3.8112549
23
104_C10H10N2S_11-0-19-18 (150,) energy =    -894.7615663
N           2.1298586    -1.5460195    -0.3405456
C           2.0233095    -2.9793253    -0.0449437
H           2.4266205    -3.1571243     0.9537313
H           2.5783797    -3.5876459    -0.7716189
H           0.9741839    -3.2782589    -0.0795137
C           5.5736599     0.4283894     1.1285854
H           6.4575127     0.9293112     1.5134477
C           4.5648869     0.0153247     2.0013805
H           4.6573334     0.1988546     3.0683736
C           3.4250184    -0.6174661     1.5073218
H           2.6257006    -0.9202369     2.1777191
C           3.2921999    -0.8585419     0.1337874
C           4.3105063    -0.4535117    -0.7396956
H           4.2139733    -0.6503327    -1.8029809
C           5.4399556     0.1956590    -0.2415861
H           6.2234459     0.5080637    -0.9266677
C           0.1039740    -1.1490044    -3.2046315
H          -0.4835926    -1.6766741    -3.9481293
N           0.7842458    -1.8861030    -2.2580442
C           1.4425816    -1.1001912    -1.4478273
S           1.2807175     0.6350585    -1.8082510
C           0.2435127     0.2017557    -3.1477222
H          -0.1606998     0.9568387    -3.8070448
23
104_C10H10N2S_11-0-19-18 (165,) energy =    -894.7619838
N           2.2011342    -1.5806532    -0.4643737
C           1.9808088    -2.9760978    -0.0724607
H           2.5309557    -3.1664115     0.8499722
H           2.3296187    -3.6661574    -0.8508585
H           0.9144943    -3.1563392     0.0853097
C           5.5101188     0.4875859     1.1683047
H           6.3602436     1.0135246     1.5934767
C           4.4869465     0.0210014     1.9962778
H           4.5339130     0.1879492     3.0689633
C           3.3896597    -0.6438870     1.4512596
H           2.5795032    -0.9847137     2.0895298
C           3.3142352    -0.8668148     0.0692086
C           4.3491459    -0.4096562    -0.7585248
H           4.3032890    -0.5975476    -1.8265074
C           5.4337459     0.2738536    -0.2090437
H           6.2294082     0.6249121    -0.8605104
C          -0.0435600    -1.1256250    -3.1402555
H          -0.7618287    -1.6287537    -3.7787239
N           0.6372365    -1.8714678    -2.2015273
C           1.4641587    -1.1163795    -1.5256914
S           1.4661757     0.5965435    -2.0101613
C           0.2510068     0.1990006    -3.2060846
H          -0.1340082     0.9519296    -3.8790517
23
104_C10H10N2S_11-0-19-18 (180,) energy =    -894.7621794
N           2.3746899    -1.6860098    -0.5772996
C           1.9773454    -2.9658684     0.0157562
H           2.8007412    -3.3310931     0.6314517
H           1.7676310    -3.6814517    -0.7816726
H           1.0719802    -2.8693549     0.6290240
C           5.4765378     0.5354793     1.2467398
H           6.2768040     1.0992512     1.7175124
C           4.4742756    -0.0470036     2.0241535
H           4.4865421     0.0662310     3.1048663
C           3.4405057    -0.7633870     1.4222300
H           2.6502954    -1.1934626     2.0301270
C           3.4075609    -0.9204470     0.0286366
C           4.4275279    -0.3515800    -0.7487645
H           4.4293466    -0.5020039    -1.8232608
C           5.4450731     0.3821298    -0.1405808
H           6.2282790     0.8171787    -0.7554423
C          -0.0563902    -1.1789799    -3.0795892
H          -0.8677272    -1.6545161    -3.6201800
N           0.6258737    -1.9167506    -2.1368289
C           1.5735885    -1.2028013    -1.5866109
S           1.6851431     0.4653296    -2.1969732
C           0.3477032     0.1042929    -3.2666522
H          -0.0275186     0.8462779    -3.9570351
