23
104_C10H10N2S_19-0-11-9 (-165,) energy =    -894.7585910
N           1.9755898    -1.3800043    -0.2111602
C           1.1752431    -2.0819537     0.7917958
H           1.3572967    -1.6440330     1.7749759
H           1.4003063    -3.1558824     0.8308324
H           0.1141903    -1.9536133     0.5707117
C           5.8564089    -0.1361128     1.0166461
H           6.8418352     0.1818805     1.3447353
C           5.1328311    -1.0763298     1.7470482
H           5.5515959    -1.5097212     2.6515898
C           3.8676531    -1.4848576     1.3284048
H           3.3583325    -2.2448613     1.9078195
C           3.2882947    -0.9579694     0.1565063
C           4.0232886    -0.0076081    -0.5775361
H           3.6003899     0.4129681    -1.4765684
C           5.2886857     0.3853819    -0.1454450
H           5.8313187     1.1221118    -0.7323875
C           1.0797108    -0.5005640    -3.5398183
H           1.3517518     0.0985964    -4.4017922
N           1.8698285    -0.4278532    -2.4162768
C           1.4105887    -1.1851525    -1.4573638
S          -0.0741647    -2.0813146    -1.9123864
C          -0.0058550    -1.3147912    -3.4765003
H          -0.7687315    -1.4949572    -4.2202824
23
104_C10H10N2S_19-0-11-9 (-150,) energy =    -894.7598815
N           1.9479660    -1.3153390    -0.2102652
C           1.1118957    -1.9488819     0.8061825
H           1.4486995    -1.6330817     1.7936969
H           1.1382103    -3.0457775     0.7503551
H           0.0745523    -1.6194853     0.6890911
C           5.8466430    -0.1265366     0.9750588
H           6.8385220     0.1808233     1.2938689
C           5.2074129    -1.2030092     1.5877780
H           5.6997099    -1.7509419     2.3869066
C           3.9356336    -1.5995904     1.1763248
H           3.4757294    -2.4617027     1.6472568
C           3.2728066    -0.9182943     0.1405073
C           3.9187591     0.1674131    -0.4749495
H           3.4290321     0.6951819    -1.2799076
C           5.1926718     0.5474150    -0.0573565
H           5.6732389     1.3911989    -0.5457051
C           1.2371611    -0.7133350    -3.6342646
H           1.6121763    -0.2795321    -4.5548707
N           2.0235060    -0.6401678    -2.5080889
C           1.4329063    -1.1939156    -1.4839616
S          -0.1765386    -1.8759293    -1.8631643
C           0.0307033    -1.3259450    -3.5065441
H          -0.7396918    -1.4813596    -4.2480603
23
104_C10H10N2S_19-0-11-9 (-135,) energy =    -894.7602639
N           1.8918386    -1.2008214    -0.1861164
C           1.0442740    -1.8136243     0.8309882
H           1.4299406    -1.5496803     1.8160297
H           1.0008165    -2.9084763     0.7431253
H           0.0244995    -1.4199763     0.7513606
C           5.8465179    -0.1523783     0.9130775
H           6.8559974     0.1204201     1.2074163
C           5.2506414    -1.3048077     1.4236667
H           5.7946494    -1.9432159     2.1147413
C           3.9567023    -1.6589249     1.0406690
H           3.5156800    -2.5736781     1.4244450
C           3.2349372    -0.8508872     0.1501183
C           3.8349311     0.3082566    -0.3634600
H           3.2884722     0.9281806    -1.0615613
C           5.1321585     0.6452251     0.0162241
H           5.5836724     1.5472321    -0.3882709
C           1.3540741    -0.8318337    -3.6674473
H           1.7882811    -0.4878578    -4.6000247
N           2.0989411    -0.7167833    -2.5165691
C           1.4369854    -1.1687067    -1.4863560
S          -0.1889160    -1.7918393    -1.8812843
C           0.1124749    -1.3732213    -3.5503854
H          -0.6321463    -1.5506443    -4.3129680
23
104_C10H10N2S_19-0-11-9 (-120,) energy =    -894.7596544
N           1.8252376    -1.1166825    -0.1602096
C           0.9737622    -1.7141381     0.8621855
H           1.3758151    -1.4578291     1.8430410
H           0.9085491    -2.8085414     0.7757882
H          -0.0400604    -1.3024897     0.7910863
C           5.8245069    -0.1813261     0.8609597
H           6.8475891     0.0637090     1.1322334
C           5.2682457    -1.4001887     1.2484829
H           5.8573249    -2.1147194     1.8171967
C           3.9567125    -1.7190720     0.8933021
H           3.5352491    -2.6791691     1.1767607
C           3.1837271    -0.8054631     0.1667330
C           3.7430421     0.4164123    -0.2262065
H           3.1464524     1.1127797    -0.8034839
C           5.0583214     0.7203553     0.1180353
H           5.4837309     1.6717002    -0.1899097
C           1.4357054    -0.9770738    -3.6734963
H           1.9118922    -0.6986820    -4.6075560
N           2.1359511    -0.7999770    -2.5022727
C           1.4245762    -1.1806282    -1.4765233
S          -0.1921279    -1.8061705    -1.8959588
C           0.1823957    -1.4953169    -3.5749828
H          -0.5320541    -1.7143433    -4.3554231
23
104_C10H10N2S_19-0-11-9 (-105,) energy =    -894.7585991
N           1.7853674    -1.0370288    -0.1498800
C           0.9189613    -1.5730836     0.8938363
H           1.3232996    -1.2796746     1.8635991
H           0.8357060    -2.6695568     0.8582360
H          -0.0882099    -1.1491129     0.8007335
C           5.8164803    -0.2078197     0.8316501
H           6.8485766     0.0101033     1.0921445
C           5.2952628    -1.4842932     1.0463172
H           5.9206580    -2.2664734     1.4682100
C           3.9718243    -1.7674686     0.7050053
H           3.5693484    -2.7658439     0.8520558
C           3.1587149    -0.7636354     0.1695450
C           3.6812260     0.5138955    -0.0512706
H           3.0441773     1.2789576    -0.4822020
C           5.0081718     0.7872700     0.2767415
H           5.4098548     1.7819524     0.1036491
C           1.5074956    -1.1318608    -3.6714506
H           2.0193982    -0.9290680    -4.6061692
N           2.1775818    -0.8971172    -2.4923550
C           1.4227005    -1.1896066    -1.4685916
S          -0.1973009    -1.7986407    -1.8964461
C           0.2374265    -1.6089548    -3.5800734
H          -0.4584916    -1.8610703    -4.3672435
23
104_C10H10N2S_19-0-11-9 (-90,) energy =    -894.7579735
N           1.8143712    -1.2878982    -0.0980168
C           0.8126234    -1.1248975     0.9489215
H           1.3124131    -1.1834567     1.9171335
H           0.0758340    -1.9352345     0.8950575
H           0.2777157    -0.1654588     0.8820843
C           5.7790433    -0.1439280     0.8376254
H           6.7948755     0.1463566     1.0917535
C           5.4642993    -1.4891655     0.6346238
H           6.2348439    -2.2492649     0.7302293
C           4.1593926    -1.8634158     0.3131893
H           3.8992703    -2.9050903     0.1538621
C           3.1677514    -0.8883295     0.1854954
C           3.4812759     0.4599084     0.3811820
H           2.7072938     1.2139377     0.2681285
C           4.7858145     0.8289583     0.7113285
H           5.0267207     1.8775357     0.8637466
C           1.5316558    -1.5507453    -3.6075609
H           2.0837247    -1.5656761    -4.5413304
N           2.2322782    -1.3857478    -2.4341014
C           1.4216448    -1.3958173    -1.4108798
S          -0.2986989    -1.5974118    -1.8325398
C           0.1817360    -1.6837135    -3.5128992
H          -0.5504564    -1.8209854    -4.2955783
23
104_C10H10N2S_19-0-11-9 (-75,) energy =    -894.7587138
N           1.7994486    -1.2161232    -0.1096837
C           0.7759041    -0.9542837     0.8958648
H           1.2538177    -0.9203785     1.8758235
H           0.0403354    -1.7676743     0.9020686
H           0.2415269    -0.0079111     0.7252879
C           5.7833059    -0.1700763     0.8566161
H           6.8042504     0.0911560     1.1211261
C           5.4801122    -1.4623707     0.4206880
H           6.2647730    -2.2105034     0.3477059
C           4.1700328    -1.8046455     0.0905003
H           3.9219934    -2.8066219    -0.2430302
C           3.1567910    -0.8448786     0.1759980
C           3.4585172     0.4509045     0.6067287
H           2.6708746     1.1968571     0.6654285
C           4.7696046     0.7837798     0.9516276
H           4.9974831     1.7922335     1.2863250
C           1.5458383    -1.7272554    -3.5972869
H           2.1060084    -1.8203625    -4.5216152
N           2.2388791    -1.4943570    -2.4311791
C           1.4198690    -1.4109843    -1.4183372
S          -0.3003316    -1.6061574    -1.8430061
C           0.1923729    -1.8227704    -3.5072587
H          -0.5360085    -1.9968102    -4.2861510
23
104_C10H10N2S_19-0-11-9 (-60,) energy =    -894.7597824
N           1.8062883    -1.1182216    -0.1262799
C           0.7690263    -0.8085300     0.8509769
H           1.2283078    -0.7431915     1.8379010
H           0.0258987    -1.6144938     0.8737804
H           0.2478609     0.1352229     0.6341654
C           5.8066900    -0.1882869     0.8940875
H           6.8314047     0.0425686     1.1714956
C           5.5034384    -1.3990267     0.2658497
H           6.2925284    -2.1163461     0.0568453
C           4.1908549    -1.7068042    -0.0841559
H           3.9528617    -2.6457679    -0.5694356
C           3.1655941    -0.7886318     0.1762590
C           3.4685426     0.4275894     0.8000996
H           2.6795053     1.1486267     0.9928166
C           4.7842653     0.7212648     1.1621268
H           5.0069868     1.6688046     1.6454187
C           1.5552200    -1.8971027    -3.5678092
H           2.1160478    -2.0734790    -4.4794350
N           2.2499782    -1.5955149    -2.4190164
C           1.4319913    -1.4149484    -1.4181619
S          -0.2918161    -1.6000426    -1.8366678
C           0.1995898    -1.9520557    -3.4769514
H          -0.5306147    -2.1675983    -4.2436538
23
104_C10H10N2S_19-0-11-9 (-45,) energy =    -894.7602777
N           1.8201270    -1.0232710    -0.1647412
C           0.7757058    -0.6962677     0.8002290
H           1.2171183    -0.6525792     1.7961349
H           0.0137077    -1.4838862     0.8038443
H           0.2830073     0.2618448     0.5825653
C           5.8307302    -0.1972356     0.9241975
H           6.8560909     0.0105023     1.2166998
C           5.5323603    -1.3118507     0.1372568
H           6.3271984    -1.9806398    -0.1822496
C           4.2208049    -1.5916422    -0.2394903
H           3.9985951    -2.4543815    -0.8527013
C           3.1804343    -0.7415707     0.1649075
C           3.4813997     0.3843610     0.9457528
H           2.6918738     1.0673684     1.2432427
C           4.7973571     0.6475811     1.3267406
H           5.0106209     1.5253526     1.9310082
C           1.5414317    -2.0571283    -3.5418273
H           2.0938323    -2.3145096    -4.4391297
N           2.2478524    -1.6946347    -2.4183945
C           1.4419367    -1.4216079    -1.4284864
S          -0.2894626    -1.5885720    -1.8326194
C           0.1855332    -2.0683938    -3.4436521
H          -0.5530285    -2.3223959    -4.1902916
23
104_C10H10N2S_19-0-11-9 (-30,) energy =    -894.7597907
N           1.8176862    -0.9167000    -0.1999128
C           0.7707490    -0.5584989     0.7543157
H           1.1818058    -0.5861161     1.7635753
H          -0.0398079    -1.2924855     0.7067430
H           0.3507572     0.4385872     0.5638601
C           5.8356290    -0.2100617     0.9769852
H           6.8596670    -0.0280160     1.2902471
C           5.5440374    -1.2117252     0.0502918
H           6.3444383    -1.8203746    -0.3624134
C           4.2351231    -1.4586644    -0.3597411
H           4.0275154    -2.2306296    -1.0855548
C           3.1790624    -0.6937499     0.1640208
C           3.4775746     0.3287109     1.0824811
H           2.6901305     0.9675423     1.4673635
C           4.7912919     0.5590040     1.4879097
H           4.9932592     1.3561093     2.1985851
C           1.4881485    -2.2067559    -3.4901187
H           2.0263973    -2.5782385    -4.3553290
N           2.2115246    -1.8141323    -2.3881325
C           1.4260782    -1.4042063    -1.4293273
S          -0.3123962    -1.4667087    -1.8479273
C           0.1352789    -2.1059894    -3.4086802
H          -0.6154269    -2.3687477    -4.1400632
23
104_C10H10N2S_19-0-11-9 (-15,) energy =    -894.7586011
N           1.8129771    -0.8590763    -0.1986371
C           0.7719461    -0.4266646     0.7335601
H           1.0967679    -0.6201727     1.7575458
H          -0.1366627    -1.0075754     0.5651180
H           0.5334601     0.6400648     0.6294074
C           5.8378088    -0.1865732     1.0104946
H           6.8609719    -0.0097457     1.3293816
C           5.5604470    -1.0464141    -0.0517117
H           6.3724712    -1.5494813    -0.5706215
C           4.2532312    -1.2872234    -0.4711125
H           4.0602142    -1.9572689    -1.2943914
C           3.1739385    -0.6636212     0.1829312
C           3.4608759     0.2232707     1.2403415
H           2.6693936     0.7697403     1.7380635
C           4.7743076     0.4480764     1.6489115
H           4.9584482     1.1380230     2.4683473
C           1.4279292    -2.4353010    -3.3646213
H           1.9371296    -2.9822886    -4.1504439
N           2.1521820    -2.0477627    -2.2613107
C           1.4058234    -1.4180404    -1.3950771
S          -0.2995384    -1.2469974    -1.9213080
C           0.1077575    -2.1151089    -3.3769976
H          -0.6441763    -2.3474438    -4.1174507
23
104_C10H10N2S_19-0-11-9 (0,) energy =    -894.7575705
N           1.8077545    -0.8326965    -0.2268625
C           0.7717449    -0.3099507     0.6631641
H           0.9299689    -0.6780117     1.6815674
H          -0.2052086    -0.6659389     0.3393045
H           0.7634260     0.7868088     0.6799195
C           5.8388545    -0.1712538     0.9770887
H           6.8634080     0.0072657     1.2903300
C           5.5615529    -0.8500756    -0.2096062
H           6.3758243    -1.2080933    -0.8345310
C           4.2531235    -1.0919907    -0.6205919
H           4.0663590    -1.6431313    -1.5292557
C           3.1673858    -0.6501759     0.1608793
C           3.4531710     0.0466393     1.3526742
H           2.6612102     0.4354775     1.9788782
C           4.7702404     0.2736535     1.7508864
H           4.9506031     0.8129509     2.6772102
C           1.4212606    -2.6942441    -3.2342327
H           1.8934469    -3.4094372    -3.8986291
N           2.1038065    -2.2964171    -2.1080550
C           1.4064635    -1.4544463    -1.3958472
S          -0.1936010    -1.0778703    -2.1136183
C           0.1783652    -2.1750558    -3.4144043
H          -0.5419026    -2.3848395    -4.1922604
23
104_C10H10N2S_19-0-11-9 (15,) energy =    -894.7586009
N           1.7577444    -0.6496800    -0.2730411
C           0.7196965     0.0145829     0.5146622
H           0.3852364    -0.5944445     1.3648255
H          -0.1405155     0.2332486    -0.1206642
H           1.0990565     0.9679148     0.8872140
C           5.7514628    -0.2654906     1.1469667
H           6.7666515    -0.1607922     1.5187669
C           5.5099054    -0.7255483    -0.1470373
H           6.3421887    -0.9835442    -0.7970246
C           4.2136997    -0.8621789    -0.6408623
H           4.0489475    -1.2189534    -1.6456129
C           3.1099162    -0.5273654     0.1660654
C           3.3583864    -0.0856591     1.4814783
H           2.5422277     0.1309583     2.1594959
C           4.6617870     0.0490740     1.9563482
H           4.8161274     0.3929959     2.9758139
C           1.3900564    -2.5519895    -3.2566865
H           1.9150835    -2.9952056    -4.0956696
N           2.1201919    -1.8566042    -2.3211221
C           1.3551762    -1.3660798    -1.3841029
S          -0.3788653    -1.7652671    -1.6041696
C           0.0466000    -2.6152567    -3.0653430
H          -0.7104435    -3.0749192    -3.6844180
23
104_C10H10N2S_19-0-11-9 (30,) energy =    -894.7597907
N           1.7631231    -0.6017760    -0.3083788
C           0.7286404     0.1225756     0.4263887
H           0.2148814    -0.5095650     1.1635186
H          -0.0153170     0.5159338    -0.2734617
H           1.1813650     0.9719997     0.9380957
C           5.7476111    -0.2671474     1.1203363
H           6.7634122    -0.1714018     1.4930484
C           5.5081581    -0.5364304    -0.2277113
H           6.3419100    -0.6489385    -0.9159041
C           4.2105795    -0.6599755    -0.7211092
H           4.0427203    -0.8787949    -1.7650252
C           3.1133083    -0.5100466     0.1438015
C           3.3574078    -0.2588996     1.5059538
H           2.5328281    -0.1862535     2.2067059
C           4.6610575    -0.1313135     1.9829406
H           4.8206274     0.0622526     3.0404386
C           1.4148849    -2.7560833    -3.1075515
H           1.9482095    -3.3564953    -3.8365032
N           2.1450931    -2.0639286    -2.1697025
C           1.3662013    -1.3824471    -1.3739625
S          -0.3755206    -1.5714764    -1.7373105
C           0.0628809    -2.6283010    -3.0549319
H          -0.6908621    -3.0650190    -3.6942040
23
104_C10H10N2S_19-0-11-9 (45,) energy =    -894.7602777
N           1.7658644    -0.5170056    -0.3576941
C           0.7402845     0.2302919     0.3625046
H           0.1607731    -0.4012599     1.0505589
H           0.0472156     0.6912459    -0.3503590
H           1.2189186     1.0294754     0.9288997
C           5.7368310    -0.3177641     1.1075147
H           6.7527800    -0.2529372     1.4866307
C           5.4991775    -0.4083577    -0.2657674
H           6.3328944    -0.4092498    -0.9629368
C           4.2006453    -0.4863478    -0.7639784
H           4.0251856    -0.5606701    -1.8285956
C           3.1109730    -0.4842615     0.1198759
C           3.3500698    -0.4048528     1.4999159
H           2.5195087    -0.4305313     2.1983883
C           4.6545290    -0.3152018     1.9862554
H           4.8192610    -0.2554271     3.0588164
C           1.4294540    -2.8766784    -2.9784148
H           1.9627153    -3.5617856    -3.6286426
N           2.1507656    -2.1496377    -2.0599368
C           1.3679312    -1.3726641    -1.3618193
S          -0.3593552    -1.4990588    -1.7971687
C           0.0845850    -2.6795673    -3.0057061
H          -0.6615603    -3.1350138    -3.6407664
23
104_C10H10N2S_19-0-11-9 (60,) energy =    -894.7597830
N           1.7763025    -0.4241058    -0.4295066
C           0.7627181     0.3386225     0.2899224
H           0.1685644    -0.2819704     0.9764823
H           0.0790175     0.8133553    -0.4235531
H           1.2577785     1.1260363     0.8594466
C           5.7209543    -0.3733652     1.1037516
H           6.7327961    -0.3428656     1.4981087
C           5.4990403    -0.2810549    -0.2727141
H           6.3392830    -0.1739206    -0.9534733
C           4.2043502    -0.3094151    -0.7856884
H           4.0296746    -0.2355329    -1.8523107
C           3.1132008    -0.4512759     0.0810765
C           3.3341931    -0.5498380     1.4600803
H           2.4927788    -0.6723306     2.1356993
C           4.6339132    -0.5046302     1.9672150
H           4.7924492    -0.5826885     3.0395088
C           1.4318918    -2.9699505    -2.8625746
H           1.9634514    -3.7079749    -3.4537105
N           2.1516867    -2.1893559    -1.9873458
C           1.3681660    -1.3562816    -1.3586866
S          -0.3530014    -1.4876306    -1.8074727
C           0.0902614    -2.7575884    -2.9238780
H          -0.6544414    -3.2497199    -3.5327476
23
104_C10H10N2S_19-0-11-9 (75,) energy =    -894.7587138
N           2.0384647    -1.8223579    -0.3312148
C           1.8917820    -3.2587034    -0.1245590
H           0.8552813    -3.4942479     0.1454175
H           2.5353004    -3.5568281     0.7042235
H           2.1583112    -3.8478835    -1.0145634
C           5.6231186    -0.0230076     1.0152071
H           6.5425519     0.4295759     1.3762560
C           4.3853635     0.4856702     1.4166698
H           4.3393824     1.3342921     2.0937535
C           3.2037417    -0.0987159     0.9641256
H           2.2372553     0.2838957     1.2743450
C           3.2560709    -1.1868465     0.0875655
C           4.4936372    -1.6945017    -0.3202731
H           4.5318085    -2.5354410    -1.0070325
C           5.6739975    -1.1154348     0.1489210
H           6.6325250    -1.5150422    -0.1711728
C           0.3980502     0.3794486    -2.5558931
H           0.3933866     1.3845300    -2.9640949
N           1.3780439     0.0446384    -1.6493310
C           1.2392186    -1.1928506    -1.2583123
S          -0.1315312    -2.0531003    -2.0056990
C          -0.5035542    -0.5851763    -2.8810380
H          -1.3404566    -0.5396385    -3.5629653
23
104_C10H10N2S_19-0-11-9 (90,) energy =    -894.7579735
N           2.0022143    -1.7950113    -0.2741989
C           1.8121275    -3.2075735     0.0329129
H           0.7570619    -3.4062200     0.2560343
H           2.3988995    -3.4501007     0.9203655
H           2.1223618    -3.8688753    -0.7902589
C           5.6327621    -0.0229756     0.9840832
H           6.5657947     0.4227269     1.3181064
C           4.4254787     0.3479003     1.5797505
H           4.4160604     1.0837175     2.3791964
C           3.2277888    -0.2275460     1.1547783
H           2.2818628     0.0497664     1.6091766
C           3.2362391    -1.1705230     0.1246269
C           4.4424453    -1.5386302    -0.4785437
H           4.4399326    -2.2637267    -1.2876342
C           5.6390197    -0.9670936    -0.0442939
H           6.5753603    -1.2555724    -0.5141990
C           0.5089748     0.3152978    -2.6787199
H           0.5504727     1.2939480    -3.1450383
N           1.4488746     0.0044603    -1.7220774
C           1.2536432    -1.2017400    -1.2625662
S          -0.1206320    -2.0619741    -2.0039147
C          -0.4149624    -0.6369973    -2.9759717
H          -1.2300349    -0.6042497    -3.6845743
23
104_C10H10N2S_19-0-11-9 (105,) energy =    -894.7585991
N           2.1462703    -1.8702696    -0.4740716
C           1.5553051    -2.9476945     0.3115728
H           0.7238046    -2.6068046     0.9462807
H           2.3311540    -3.3792865     0.9454537
H           1.1794569    -3.7349571    -0.3530829
C           5.6134649     0.0297111     1.0324007
H           6.5080241     0.5084577     1.4211573
C           4.4573947    -0.0304624     1.8115207
H           4.4452259     0.4065870     2.8063856
C           3.3052412    -0.6384400     1.3104210
H           2.3975288    -0.6688122     1.9066582
C           3.3162790    -1.2103715     0.0343864
C           4.4719513    -1.1457475    -0.7492629
H           4.4615802    -1.5793802    -1.7435924
C           5.6152359    -0.5235860    -0.2503106
H           6.5113571    -0.4761541    -0.8630368
C           0.7671497     0.1919499    -2.9904773
H           0.9341709     1.0685221    -3.6073960
N           1.7388977    -0.1668062    -2.0841850
C           1.3829604    -1.2377786    -1.4286040
S          -0.2141150    -1.8855632    -1.8848090
C          -0.3470611    -0.5854521    -3.0473880
H          -1.2210287    -0.4860701    -3.6749285
23
104_C10H10N2S_19-0-11-9 (120,) energy =    -894.7596538
N           2.1120397    -1.8074986    -0.4172430
C           1.4822830    -2.8418655     0.3954130
H           0.6473980    -2.4588340     1.0001526
H           2.2351396    -3.2696747     1.0584577
H           1.1009343    -3.6427667    -0.2492027
C           5.6475972     0.0062713     1.0400325
H           6.5593749     0.4620105     1.4159427
C           4.5646785    -0.2053510     1.8930205
H           4.6239883     0.0913432     2.9367916
C           3.3902918    -0.7832239     1.4082744
H           2.5410755    -0.9242785     2.0706062
C           3.3021408    -1.1767238     0.0676047
C           4.3873428    -0.9605331    -0.7902315
H           4.3079402    -1.2505095    -1.8312259
C           5.5500691    -0.3680663    -0.3025082
H           6.3879858    -0.2054819    -0.9750451
C           0.8282989     0.0910866    -3.1117924
H           1.0249281     0.9173234    -3.7866191
N           1.7761479    -0.2209594    -2.1644133
C           1.3879633    -1.2338849    -1.4387749
S          -0.2142895    -1.8816621    -1.8795077
C          -0.3003584    -0.6669659    -3.1337768
H          -1.1605368    -0.5969468    -3.7839147
23
104_C10H10N2S_19-0-11-9 (135,) energy =    -894.7602637
N           2.0743508    -1.7214978    -0.3555219
C           1.4270989    -2.7372819     0.4678142
H           0.6086064    -2.3298647     1.0780069
H           2.1730612    -3.1854468     1.1246172
H           1.0204774    -3.5295938    -0.1710162
C           5.6961486    -0.0451629     1.0655698
H           6.6287622     0.3722266     1.4345278
C           4.6732476    -0.3789604     1.9522660
H           4.7985215    -0.2169912     3.0195794
C           3.4730672    -0.9087546     1.4777610
H           2.6748058    -1.1381689     2.1768522
C           3.2882340    -1.1266407     0.1046233
C           4.3174081    -0.7905515    -0.7871179
H           4.1762427    -0.9431854    -1.8487622
C           5.5066300    -0.2503770    -0.3028780
H           6.2960233     0.0035916    -1.0053292
C           0.8752630    -0.0208332    -3.2216096
H           1.0965631     0.7495817    -3.9523836
N           1.8010249    -0.2731478    -2.2357726
C           1.3895881    -1.2252318    -1.4433770
S          -0.2150237    -1.8834920    -1.8674661
C          -0.2622357    -0.7653979    -3.2089182
H          -1.1074100    -0.7365881    -3.8814795
23
104_C10H10N2S_19-0-11-9 (150,) energy =    -894.7598816
N           2.0271365    -1.6236259    -0.3083846
C           1.3686990    -2.6262074     0.5251733
H           0.6017232    -2.1918085     1.1809156
H           2.1173717    -3.1306784     1.1362005
H           0.8957376    -3.3819168    -0.1100461
C           5.7343956    -0.0977874     1.0865222
H           6.6862970     0.2777401     1.4509253
C           4.7654515    -0.5546456     1.9782823
H           4.9508096    -0.5322659     3.0489581
C           3.5421572    -1.0336630     1.5112805
H           2.7934058    -1.3511163     2.2289863
C           3.2656935    -1.0698546     0.1333626
C           4.2446333    -0.6096832    -0.7636839
H           4.0442151    -0.6200283    -1.8248264
C           5.4597471    -0.1272899    -0.2815240
H           6.2035303     0.2219049    -0.9930453
C           0.9102937    -0.1492336    -3.3366017
H           1.1633017     0.5436052    -4.1317757
N           1.8217382    -0.3467837    -2.3256030
C           1.3791716    -1.2125474    -1.4544418
S          -0.2501018    -1.8462526    -1.8328479
C          -0.2517166    -0.8505942    -3.2662764
H          -1.0889786    -0.8576988    -3.9492409
23
104_C10H10N2S_19-0-11-9 (165,) energy =    -894.7585909
N           2.0035197    -1.5642190    -0.2996192
C           1.3120946    -2.5122608     0.5734590
H           0.7202945    -2.0110063     1.3506677
H           2.0428025    -3.1683262     1.0502945
H           0.6484849    -3.1427876    -0.0206988
C           5.7426087    -0.0983210     1.1092605
H           6.6985525     0.2626485     1.4776107
C           4.8486693    -0.7404979     1.9633637
H           5.0953997    -0.8801716     3.0126519
C           3.6218500    -1.2057615     1.4929184
H           2.9439303    -1.6656907     2.2011622
C           3.2543731    -1.0385160     0.1425174
C           4.1617282    -0.3894771    -0.7164390
H           3.9050086    -0.2521911    -1.7552866
C           5.3820358     0.0727112    -0.2269708
H           6.0624185     0.5686056    -0.9146614
C           1.0069979    -0.3630041    -3.4963860
H           1.3331412     0.1667563    -4.3846234
N           1.9147832    -0.5598282    -2.4819073
C           1.3885721    -1.2258297    -1.4902818
S          -0.3334814    -1.6484348    -1.7563041
C          -0.2400880    -0.8695907    -3.3130090
H          -1.0871204    -0.8590338    -3.9839008
23
104_C10H10N2S_19-0-11-9 (180,) energy =    -894.7575037
N           1.9793919    -1.4099563    -0.2302452
C           1.2282315    -2.2097244     0.7365643
H           1.1541193    -1.6779320     1.6906013
H           1.6994242    -3.1847104     0.9101216
H           0.2134593    -2.3675580     0.3747777
C           5.8669445    -0.1589097     0.9769204
H           6.8583427     0.1528822     1.2924984
C           5.0455300    -0.8912251     1.8298029
H           5.3908043    -1.1645738     2.8235531
C           3.7714926    -1.2922147     1.4283943
H           3.1826820    -1.8765388     2.1228926
C           3.2788788    -0.9637552     0.1490717
C           4.1140013    -0.2199162    -0.7076353
H           3.7548416     0.0704352    -1.6828092
C           5.3854911     0.1662287    -0.2914621
H           6.0038144     0.7392749    -0.9777791
C           0.9468079    -0.2269584    -3.4223362
H           1.0961468     0.5440047    -4.1701316
N           1.6943291    -0.1742194    -2.2687768
C           1.3928430    -1.1492520    -1.4559745
S           0.1262981    -2.2424723    -2.1026742
C           0.0452664    -1.2388084    -3.5239453
H          -0.6699271    -1.4381704    -4.3091935
