17
451_C7H6N4_4-5-13-11 (-165,) energy =    -489.3331415
C           5.8402487     0.8922070    -0.2511741
H           6.7092178     1.5335315    -0.3462229
C           5.0561032     0.8750395     0.9015583
H           5.2942216     1.5084735     1.7544886
N           3.9870426     0.0871677     1.0407642
C           3.6990124    -0.6773960    -0.0135651
N           4.3712610    -0.7583921    -1.1691640
C           5.4442968     0.0295529    -1.2710125
H           5.9985473    -0.0350072    -2.2057288
C           1.1500798    -3.1640680    -0.2523194
H           0.6287996    -4.0220444    -0.6515075
C           2.2868492    -2.5789708    -0.7483540
H           2.9103924    -2.7949649    -1.6007170
N           2.5799637    -1.5252628     0.0853632
N           1.6844097    -1.4100809     1.1074478
C           0.8231215    -2.3924907     0.8962902
H          -0.0112799    -2.5187038     1.5745031
17
451_C7H6N4_4-5-13-11 (-150,) energy =    -489.3316450
C           5.8365504     0.8849229    -0.2459079
H           6.7153159     1.5148368    -0.3270795
C           5.1004829     0.7918764     0.9344864
H           5.3896901     1.3481763     1.8245279
N           4.0231505     0.0117811     1.0574808
C           3.6693763    -0.6511057    -0.0444688
N           4.2942843    -0.6584399    -1.2284621
C           5.3838908     0.1095511    -1.3113180
H           5.9025499     0.1034090    -2.2683547
C           1.1876760    -3.2097584    -0.1989568
H           0.7178574    -4.1231371    -0.5338610
C           2.3341946    -2.6377899    -0.6896657
H           3.0112437    -2.9164163    -1.4814968
N           2.5412144    -1.4909177     0.0385507
N           1.5901914    -1.3084924     0.9976371
C           0.7708236    -2.3371133     0.8423725
H          -0.0994269    -2.4213540     1.4808206
17
451_C7H6N4_4-5-13-11 (-135,) energy =    -489.3291679
C           5.8454931     0.8822937    -0.2409404
H           6.7328225     1.5023401    -0.3043065
C           5.1527629     0.7052819     0.9558816
H           5.4872324     1.1797153     1.8768430
N           4.0673769    -0.0677893     1.0559595
C           3.6556144    -0.6244209    -0.0840156
N           4.2387322    -0.5505736    -1.2858203
C           5.3421798     0.2008843    -1.3469365
H           5.8288142     0.2598307    -2.3188207
C           1.2307494    -3.2403571    -0.1359280
H           0.8054189    -4.1991536    -0.3946406
C           2.3871039    -2.6850185    -0.6250130
H           3.1132118    -3.0249588    -1.3472072
N           2.5180183    -1.4583627    -0.0219249
N           1.5172913    -1.2121157     0.8686929
C           0.7336828    -2.2770771     0.7815158
H          -0.1690666    -2.3206194     1.3774347
17
451_C7H6N4_4-5-13-11 (-120,) energy =    -489.3259852
C           5.8461975     0.8830625    -0.2360070
H           6.7367251     1.5002682    -0.2818619
C           5.2038883     0.6050869     0.9697524
H           5.5828024     0.9918150     1.9141213
N           4.1155629    -0.1672566     1.0457291
C           3.6477545    -0.6134857    -0.1209433
N           4.1818951    -0.4405137    -1.3335677
C           5.2912971     0.3054987    -1.3754852
H           5.7387730     0.4453960    -2.3577819
C           1.2628117    -3.2668969    -0.0572731
H           0.8714525    -4.2584229    -0.2328735
C           2.4359700    -2.7384514    -0.5393082
H           3.2085678    -3.1399498    -1.1777609
N           2.5043828    -1.4488863    -0.0774383
N           1.4535378    -1.1346665     0.7292867
C           0.6950017    -2.2223934     0.7167718
H          -0.2404164    -2.2223380     1.2616278
17
451_C7H6N4_4-5-13-11 (-105,) energy =    -489.3227262
C           5.8430138     0.9011597    -0.2369171
H           6.7258799     1.5301934    -0.2718573
C           5.2763906     0.4959113     0.9706924
H           5.7082684     0.7899699     1.9255630
N           4.1960399    -0.2895632     1.0295070
C           3.6644169    -0.6248140    -0.1469552
N           4.1242982    -0.3252812    -1.3631909
C           5.2241079     0.4374675    -1.3947636
H           5.6102788     0.6829440    -2.3822563
C           1.2739716    -3.2776994     0.0244395
H           0.8953183    -4.2853567    -0.0669538
C           2.4880512    -2.8019680    -0.4149675
H           3.3108670    -3.2756852    -0.9301473
N           2.5194312    -1.4683964    -0.1099027
N           1.4064370    -1.0663782     0.5613760
C           0.6465323    -2.1540276     0.6161413
H          -0.3315009    -2.0943194     1.0762465
17
451_C7H6N4_4-5-13-11 (-90,) energy =    -489.3208368
C           5.8270668     0.9445402    -0.2735008
H           6.6770356     1.6140408    -0.3505726
C           5.4696546     0.3472455     0.9331391
H           6.0353794     0.5278159     1.8451464
N           4.4205028    -0.4769248     1.0413467
C           3.7351305    -0.6885277    -0.0822113
N           3.9847692    -0.1923799    -1.2939293
C           5.0385855     0.6287616    -1.3775598
H           5.2503884     1.0404566    -2.3624673
C           1.2535509    -3.2826795     0.0648298
H           0.8510406    -4.2840792     0.0179299
C           2.5640154    -2.9007748    -0.1333950
H           3.4554849    -3.4638594    -0.3689674
N           2.6004287    -1.5479325     0.0247970
N           1.3837021    -1.0211011     0.3166379
C           0.5716668    -2.0754117     0.3398715
H          -0.4790737    -1.9285283     0.5542920
17
451_C7H6N4_4-5-13-11 (-75,) energy =    -489.3226239
C           5.8193562     0.9414039    -0.3138186
H           6.6637773     1.6112619    -0.4348300
C           5.6365749     0.1912512     0.8449854
H           6.3385301     0.2481606     1.6747702
N           4.5856899    -0.6204967     1.0145898
C           3.7424888    -0.6956284    -0.0166872
N           3.8139697    -0.0422528    -1.1769546
C           4.8571056     0.7835816    -1.3100142
H           4.9214600     1.3277581    -2.2504624
C           1.2692177    -3.2787893     0.1021679
H           0.8775396    -4.2855798     0.0966367
C           2.5911183    -2.8996756     0.1546652
H           3.5081570    -3.4685180     0.2048727
N           2.6061715    -1.5319496     0.1703866
N           1.3575096    -1.0008409     0.0716366
C           0.5531839    -2.0576964     0.0574348
H          -0.5181257    -1.9068314     0.0205485
17
451_C7H6N4_4-5-13-11 (-60,) energy =    -489.3258001
C           5.8238133     0.9305281    -0.3219617
H           6.6795474     1.5868633    -0.4362388
C           5.6919625     0.0766505     0.7706063
H           6.4477496     0.0351524     1.5527800
N           4.6276694    -0.7163296     0.9360267
C           3.7187851    -0.6744844    -0.0426661
N           3.7361189     0.0846175    -1.1388591
C           4.7932940     0.8937471    -1.2600208
H           4.8137428     1.5244358    -2.1470070
C           1.2877469    -3.2794036     0.1779844
H           0.9155970    -4.2904766     0.2575640
C           2.5908011    -2.8601794     0.2976293
H           3.5109419    -3.3892518     0.4964739
N           2.5805237    -1.4968447     0.1496399
N           1.3343915    -1.0181946    -0.1190839
C           0.5554143    -2.0906510    -0.0726557
H          -0.5115470    -1.9765254    -0.2157575
17
451_C7H6N4_4-5-13-11 (-45,) energy =    -489.3290218
C           5.8310831     0.9251683    -0.3207406
H           6.6963653     1.5713006    -0.4188924
C           5.7283981    -0.0188660     0.6988134
H           6.5181375    -0.1441593     1.4373899
N           4.6559588    -0.8026727     0.8450005
C           3.7025855    -0.6565215    -0.0822614
N           3.6876262     0.1955077    -1.1078336
C           4.7573895     0.9902933    -1.2074064
H           4.7521544     1.6955123    -2.0367122
C           1.2965314    -3.2680934     0.2583765
H           0.9323062    -4.2704259     0.4309935
C           2.5837509    -2.8141333     0.4049048
H           3.4975738    -3.2959009     0.7172514
N           2.5663399    -1.4768141     0.0930626
N           1.3306738    -1.0542762    -0.2944622
C           0.5653105    -2.1289489    -0.1709414
H          -0.4923628    -2.0533213    -0.3890923
17
451_C7H6N4_4-5-13-11 (-30,) energy =    -489.3315745
C           5.8327525     0.9198355    -0.3129721
H           6.7023995     1.5622720    -0.3941934
C           5.7570767    -0.1031983     0.6298812
H           6.5737781    -0.2967003     1.3231021
N           4.6834636    -0.8881611     0.7527153
C           3.6922013    -0.6539962    -0.1163666
N           3.6477462     0.2809988    -1.0662814
C           4.7243643     1.0677441    -1.1455951
H           4.6950587     1.8388894    -1.9135630
C           1.2934844    -3.2547093     0.3402112
H           0.9259066    -4.2358334     0.6037176
C           2.5686565    -2.7748203     0.5004173
H           3.4687053    -3.2080428     0.9072302
N           2.5624863    -1.4828161     0.0314937
N           1.3423942    -1.1144338    -0.4516617
C           0.5788045    -2.1772689    -0.2498195
H          -0.4661770    -2.1384131    -0.5301337
17
451_C7H6N4_4-5-13-11 (-15,) energy =    -489.3331243
C           5.8416704     0.9279808    -0.3111388
H           6.7120063     1.5711301    -0.3769273
C           5.7960521    -0.1666824     0.5495556
H           6.6387697    -0.4183462     1.1910654
N           4.7262512    -0.9594289     0.6474641
C           3.6984940    -0.6486799    -0.1532490
N           3.6218004     0.3616177    -1.0205234
C           4.7012305     1.1452539    -1.0831669
H           4.6461077     1.9752644    -1.7856230
C           1.2825798    -3.2165498     0.4003503
H           0.8961163    -4.1627298     0.7504725
C           2.5483851    -2.7200946     0.5791070
H           3.4222861    -3.1036299     1.0803353
N           2.5762330    -1.4899678    -0.0351215
N           1.3831244    -1.1750297    -0.6157643
C           0.6066892    -2.2121559    -0.3452170
H          -0.4191406    -2.2090736    -0.6913434
17
451_C7H6N4_4-5-13-11 (0,) energy =    -489.3336322
C           5.8451278     0.9309129    -0.3081499
H           6.7134533     1.5775380    -0.3652390
C           5.8360582    -0.2269767     0.4664844
H           6.7065790    -0.5272984     1.0470406
N           4.7731032    -1.0308347     0.5447030
C           3.7061276    -0.6545669    -0.1724003
N           3.5899150     0.4240799    -0.9484003
C           4.6696560     1.2072035    -1.0052995
H           4.5835605     2.0901390    -1.6365345
C           1.2640053    -3.1787749     0.4636235
H           0.8509498    -4.0810604     0.8907767
C           2.5197373    -2.6659870     0.6640172
H           3.3614372    -2.9955793     1.2509301
N           2.5937269    -1.5114475    -0.0801029
N           1.4358021    -1.2558938    -0.7544282
C           0.6400188    -2.2602509    -0.4247112
H          -0.3614422    -2.2974560    -0.8343933
17
451_C7H6N4_4-5-13-11 (15,) energy =    -489.3331243
C           5.8399801     0.9305978    -0.3072384
H           6.7041384     1.5833020    -0.3588302
C           5.8709464    -0.2825477     0.3772183
H           6.7698579    -0.6211274     0.8894332
N           4.8169764    -1.0997849     0.4386972
C           3.7123366    -0.6701045    -0.1851107
N           3.5536837     0.4669846    -0.8637903
C           4.6305043     1.2546578    -0.9204189
H           4.5115562     2.1834024    -1.4760131
C           1.2313785    -3.1373412     0.5181559
H           0.7824083    -3.9868029     1.0121557
C           2.4772636    -2.6100728     0.7427539
H           3.2789013    -2.8817998     1.4102672
N           2.6114052    -1.5443886    -0.1160712
N           1.4975501    -1.3520557    -0.8790764
C           0.6738341    -2.3160479    -0.4997480
H          -0.2980772    -2.3963766    -0.9699354
17
451_C7H6N4_4-5-13-11 (30,) energy =    -489.3315745
C           5.8292409     0.9252721    -0.3048892
H           6.6844442     1.5900518    -0.3528757
C           5.9061058    -0.3337307     0.2869732
H           6.8330907    -0.6978323     0.7264371
N           4.8651787    -1.1692559     0.3345973
C           3.7251438    -0.7049512    -0.1921656
N           3.5207102     0.4775180    -0.7739763
C           4.5876394     1.2792514    -0.8309947
H           4.4328976     2.2444368    -1.3103384
C           1.1943254    -3.1013156     0.5683668
H           0.7015480    -3.8887675     1.1199496
C           2.4316953    -2.5629503     0.8155546
H           3.1857489    -2.7703317     1.5582944
N           2.6386688    -1.6006596    -0.1437998
N           1.5747207    -1.4738173    -0.9862337
C           0.7153366    -2.3884673    -0.5639751
H          -0.2237201    -2.5134673    -1.0880167
17
451_C7H6N4_4-5-13-11 (45,) energy =    -489.3290218
C           5.8257381     0.9334392    -0.3084405
H           6.6699293     1.6121977    -0.3580588
C           5.9505778    -0.3625556     0.1875914
H           6.9051241    -0.7427937     0.5469551
N           4.9233378    -1.2162814     0.2297753
C           3.7503053    -0.7303362    -0.1920636
N           3.4989525     0.4873738    -0.6737064
C           4.5527353     1.3068800    -0.7365074
H           4.3605518     2.3012927    -1.1356543
C           1.1485554    -3.0391823     0.5988605
H           0.6026600    -3.7604862     1.1894923
C           2.3787208    -2.4969648     0.8766677
H           3.0760489    -2.6438330     1.6871588
N           2.6763895    -1.6470468    -0.1601569
N           1.6703926    -1.5797889    -1.0761436
C           0.7639391    -2.4362064    -0.6279805
H          -0.1388640    -2.6001501    -1.2024813
17
451_C7H6N4_4-5-13-11 (60,) energy =    -489.3258001
C           5.8214058     0.9342573    -0.3164188
H           6.6533386     1.6274114    -0.3759292
C           5.9945782    -0.3914665     0.0743038
H           6.9759265    -0.7818892     0.3374722
N           4.9805292    -1.2621701     0.1241135
C           3.7773520    -0.7650785    -0.1774261
N           3.4803540     0.4802695    -0.5503550
C           4.5181201     1.3194234    -0.6268560
H           4.2886099     2.3367782    -0.9386977
C           1.0951785    -2.9815148     0.6210705
H           0.4907852    -3.6333285     1.2350288
C           2.3109199    -2.4272252     0.9416171
H           2.9361378    -2.5000790     1.8190627
N           2.7101425    -1.6973501    -0.1486084
N           1.7790084    -1.7059740    -1.1421268
C           0.8220269    -2.5030735    -0.6861197
H          -0.0344582    -2.7145359    -1.3135161
17
451_C7H6N4_4-5-13-11 (75,) energy =    -489.3226239
C           5.8261606     0.9308822    -0.3294742
H           6.6506331     1.6315989    -0.4045846
C           6.0321553    -0.4206736    -0.0652245
H           7.0323320    -0.8250872     0.0783679
N           5.0239605    -1.2984598     0.0061511
C           3.8018304    -0.7874208    -0.1532295
N           3.4749184     0.4822344    -0.3968147
C           4.5015235     1.3336407    -0.4918369
H           4.2466804     2.3715882    -0.6978277
C           1.0409726    -2.9257105     0.6273462
H           0.3779866    -3.5128116     1.2460798
C           2.2213676    -2.3277001     1.0054408
H           2.7512979    -2.2977199     1.9463645
N           2.7283744    -1.7209831    -0.1107970
N           1.9040151    -1.8462331    -1.1858451
C           0.9009589    -2.5956700    -0.7427789
H           0.1104756    -2.8792185    -1.4258320
17
451_C7H6N4_4-5-13-11 (90,) energy =    -489.3208368
C           5.8545701     0.9019989    -0.3367843
H           6.7064618     1.5685251    -0.4182803
C           6.0059154    -0.4822994    -0.3007694
H           6.9888200    -0.9470699    -0.3486712
N           4.9621076    -1.3147363    -0.2048581
C           3.7639851    -0.7331594    -0.1486046
N           3.4909664     0.5714940    -0.1577146
C           4.5503055     1.3840924    -0.2540523
H           4.3382328     2.4514861    -0.2636438
C           1.0077485    -2.9024410     0.6304071
H           0.3164299    -3.4570796     1.2480398
C           2.0475200    -2.1017978     1.0550332
H           2.4084330    -1.8441581     2.0402439
N           2.6411391    -1.6109042    -0.0688763
N           2.0467460    -2.0467683    -1.2089928
C           1.0584921    -2.8284842    -0.7802895
H           0.4155483    -3.3124266    -1.5041883
17
451_C7H6N4_4-5-13-11 (105,) energy =    -489.3227262
C           5.8707758     0.8582184    -0.3007965
H           6.7558976     1.4837625    -0.3409273
C           5.9299825    -0.5151341    -0.5331889
H           6.8729771    -1.0117287    -0.7543717
N           4.8497745    -1.3008294    -0.4747025
C           3.6979451    -0.6766754    -0.2241022
N           3.5143525     0.6182553     0.0402619
C           4.6158771     1.3783513     0.0047434
H           4.4774639     2.4353135     0.2242911
C           1.0038460    -2.8598350     0.6459843
H           0.3050943    -3.3723281     1.2911209
C           1.8750763    -1.8537456     0.9954557
H           2.0668520    -1.3512992     1.9322662
N           2.5357603    -1.4936524    -0.1474756
N           2.1777668    -2.2595541    -1.2134141
C           1.2344721    -3.0635152    -0.7366781
H           0.7465968    -3.7620384    -1.4044010
17
451_C7H6N4_4-5-13-11 (120,) energy =    -489.3259852
C           5.8672637     0.8504786    -0.2844792
H           6.7482891     1.4823834    -0.3084699
C           5.9125547    -0.4911543    -0.6608523
H           6.8422184    -0.9563879    -0.9837300
N           4.8399754    -1.2878557    -0.6211070
C           3.7029323    -0.6988371    -0.2479050
N           3.5333437     0.5627424     0.1587152
C           4.6308122     1.3272151     0.1442567
H           4.5047427     2.3543370     0.4816584
C           0.9558169    -2.7919989     0.6491050
H           0.2084226    -3.2327696     1.2927229
C           1.7917389    -1.7418782     0.9430334
H           1.9052765    -1.1238682     1.8210441
N           2.5483219    -1.5168522    -0.1785404
N           2.2786510    -2.4110406    -1.1692569
C           1.3007421    -3.1594170    -0.6770065
H           0.8693215    -3.9390016    -1.2918228
17
451_C7H6N4_4-5-13-11 (135,) energy =    -489.3291679
C           5.8638343     0.8539256    -0.2831425
H           6.7341333     1.5003164    -0.3073224
C           5.9015343    -0.4529980    -0.7670028
H           6.8158207    -0.8754905    -1.1801699
N           4.8437257    -1.2687289    -0.7303791
C           3.7246499    -0.7312088    -0.2428631
N           3.5631930     0.4944306     0.2685603
C           4.6478469     1.2749606     0.2506876
H           4.5286074     2.2711410     0.6728879
C           0.8989222    -2.7270459     0.6275883
H           0.0930068    -3.0971109     1.2445819
C           1.7277517    -1.6650549     0.8921211
H           1.7830648    -0.9673345     1.7133906
N           2.5848502    -1.5617419    -0.1757023
N           2.3739924    -2.5373533    -1.1025322
C           1.3453405    -3.2232538    -0.6258769
H           0.9505907    -4.0526268    -1.1988384
17
451_C7H6N4_4-5-13-11 (150,) energy =    -489.3316450
C           5.8552555     0.8559920    -0.2889470
H           6.7130443     1.5183551    -0.3218520
C           5.8807959    -0.4151954    -0.8609733
H           6.7730165    -0.7917043    -1.3584343
N           4.8388247    -1.2499914    -0.8193435
C           3.7466893    -0.7706982    -0.2223624
N           3.5979255     0.4187704     0.3738235
C           4.6662967     1.2196105     0.3398292
H           4.5563941     2.1857983     0.8290804
C           0.8432743    -2.6769952     0.5934931
H          -0.0210732    -2.9800724     1.1663794
C           1.6695947    -1.6097080     0.8395434
H           1.6720909    -0.8448600     1.5998236
N           2.6231477    -1.6176576    -0.1499746
N           2.4640915    -2.6603357    -1.0131628
C           1.3847870    -3.2868570    -0.5703259
H           1.0230889    -4.1577838    -1.1020302
17
451_C7H6N4_4-5-13-11 (165,) energy =    -489.3331415
C           5.8579066     0.8648957    -0.2918041
H           6.7048669     1.5402660    -0.3362117
C           5.8588075    -0.3666696    -0.9454225
H           6.7195121    -0.6963220    -1.5250307
N           4.8290219    -1.2152966    -0.8965866
C           3.7765103    -0.7972745    -0.1918838
N           3.6529960     0.3527049     0.4835263
C           4.7056568     1.1721682     0.4285597
H           4.6141709     2.1065058     0.9796494
C           0.8023378    -2.6261375     0.5478163
H          -0.1159462    -2.8699841     1.0621131
C           1.6230079    -1.5520624     0.7791099
H           1.5745564    -0.7285395     1.4729720
N           2.6655427    -1.6576421    -0.1115501
N           2.5586096    -2.7623879    -0.9040417
C           1.4338848    -3.3372842    -0.5090452
H           1.1058992    -4.2468783    -0.9960689
17
451_C7H6N4_4-5-13-11 (180,) energy =    -489.3336321
C           5.8358967     0.8934834    -0.2530418
H           6.6955412     1.5457747    -0.3575278
C           4.9970220     0.9465624     0.8593464
H           5.1789073     1.6518920     1.6685969
N           3.9341354     0.1520564     1.0064163
C           3.7206044    -0.7081161     0.0096184
N           4.4469518    -0.8583470    -1.1058482
C           5.5024695    -0.0494759    -1.2228672
H           6.0970412    -0.1666582    -2.1272014
C           1.1043163    -3.1173923    -0.2935517
H           0.5280696    -3.9117616    -0.7453685
C           2.2280818    -2.5166460    -0.7998075
H           2.7920235    -2.6623181    -1.7066223
N           2.6113308    -1.5670950     0.1187112
N           1.7802071    -1.5286706     1.1996813
C           0.8761784    -2.4613303     0.9472823
H           0.0843546    -2.6375960     1.6642984
