27
010_C10H15N2+_1-0-20-17 (-165,) energy =    -499.3570192
C           3.8829778     1.8635579    -0.2742673
C           2.7985551     2.7512334    -0.3335632
H           2.9764024     3.8175710    -0.4449182
C           1.4930900     2.2692413    -0.2952563
H           0.6643437     2.9690470    -0.3477604
C           1.2489011     0.8958881    -0.2130180
H           0.2303026     0.5214549    -0.1927131
C           2.3240899     0.0117864    -0.1632340
H           2.1490840    -1.0579453    -0.0966979
C           3.6379468     0.4884246    -0.1821472
H           4.4538923    -0.2239872    -0.1148568
N           7.9167399     3.2647288     0.0387481
H           8.2172529     2.7553053     0.8798972
H           8.7223258     3.8233114    -0.2646056
C           7.5396887     2.2567912    -1.0365761
H           8.4044108     1.6064570    -1.1892334
H           7.3406434     2.8334986    -1.9419426
C           6.3018399     1.4843356    -0.5900978
H           6.5602146     0.8435939     0.2763337
H           6.0190960     0.8195951    -1.4105126
N           5.2156263     2.4090369    -0.3166488
C           5.5549742     3.3081447     0.7830854
H           5.7710319     2.7581975     1.7206724
H           4.7158671     3.9728315     0.9945335
C           6.7524097     4.1726388     0.4065223
H           7.0843295     4.8116026     1.2283434
H           6.5435153     4.7771544    -0.4784670
27
010_C10H15N2+_1-0-20-17 (-150,) energy =    -499.3571485
C           3.8810328     1.8702353    -0.2496198
C           2.8094523     2.7349612    -0.5058972
H           3.0082719     3.7760950    -0.7459346
C           1.5019166     2.2549574    -0.4777136
H           0.6772964     2.9321785    -0.6792990
C           1.2539757     0.9045724    -0.2176129
H           0.2353712     0.5292178    -0.2084678
C           2.3210998     0.0399312     0.0218947
H           2.1371516    -1.0111186     0.2239376
C           3.6335742     0.5191655     0.0168524
H           4.4503571    -0.1660915     0.2245678
N           7.9178263     3.2506226     0.0255370
H           8.2529807     2.6687352     0.8042804
H           8.7101369     3.8372894    -0.2589388
C           7.4997713     2.3401000    -1.1207036
H           8.3613138     1.7152719    -1.3684957
H           7.2566258     2.9945036    -1.9600401
C           6.2868951     1.5222558    -0.6858358
H           6.5956043     0.8171709     0.1119361
H           5.9614141     0.9212412    -1.5390458
N           5.2154398     2.4173839    -0.2857725
C           5.5871738     3.2243877     0.8704320
H           5.8340389     2.6063906     1.7570090
H           4.7499021     3.8661269     1.1541503
C           6.7713790     4.1204156     0.5225622
H           7.1405704     4.6848471     1.3822089
H           6.5269841     4.8001954    -0.2961855
27
010_C10H15N2+_1-0-20-17 (-135,) energy =    -499.3567367
C           3.8558348     1.9019532    -0.2539060
C           2.7925016     2.6890205    -0.7068060
H           2.9964475     3.6836449    -1.0929623
C           1.4912671     2.1882327    -0.6730110
H           0.6690835     2.8029249    -1.0270862
C           1.2496285     0.8952902    -0.2031587
H           0.2375214     0.5025513    -0.1861716
C           2.3119898     0.1059058     0.2395601
H           2.1291331    -0.9002446     0.6050608
C           3.6146565     0.6083145     0.2226289
H           4.4325570    -0.0113999     0.5810550
N           7.9074125     3.2315064     0.0308109
H           8.2526225     2.5669339     0.7353639
H           8.7010453     3.8354474    -0.2104141
C           7.4494014     2.4513285    -1.1939854
H           8.2964033     1.8476003    -1.5288676
H           7.1935968     3.1936323    -1.9525594
C           6.2366642     1.6065283    -0.8144338
H           6.5560281     0.8187143    -0.1032496
H           5.8793561     1.1007334    -1.7153159
N           5.1869622     2.4700877    -0.2957084
C           5.5971497     3.1457440     0.9296688
H           5.8550254     2.4396855     1.7444874
H           4.7747932     3.7664528     1.2944853
C           6.7862456     4.0583010     0.6454480
H           7.1853951     4.5268234     1.5482553
H           6.5309736     4.8217046    -0.0921999
27
010_C10H15N2+_1-0-20-17 (-120,) energy =    -499.3565661
C           3.8554996     1.9282562    -0.2484338
C           2.8130333     2.6100871    -0.8809887
H           3.0251776     3.5460264    -1.3891314
C           1.5213085     2.0822557    -0.8567615
H           0.7123416     2.6131657    -1.3496215
C           1.2715265     0.8730347    -0.2048966
H           0.2663024     0.4627764    -0.1892566
C           2.3137848     0.1904854     0.4258686
H           2.1221362    -0.7500924     0.9337553
C           3.6061759     0.7170156     0.4077308
H           4.4123379     0.1819412     0.9042634
N           7.9297384     3.1848237     0.0273976
H           8.2785756     2.4466266     0.6522549
H           8.7297180     3.7945127    -0.1752218
C           7.4218007     2.5404180    -1.2552874
H           8.2450396     1.9558077    -1.6728924
H           7.1643752     3.3606691    -1.9282894
C           6.1987991     1.6883816    -0.9293430
H           6.5116066     0.8201687    -0.3156091
H           5.8043891     1.2905841    -1.8682292
N           5.1822677     2.5144124    -0.2905858
C           5.6450648     3.0513870     0.9834994
H           5.9163798     2.2651325     1.7161842
H           4.8476953     3.6471839     1.4357298
C           6.8433536     3.9670673     0.7527539
H           7.2772701     4.3385577     1.6842055
H           6.5822153     4.8029612     0.1007313
27
010_C10H15N2+_1-0-20-17 (-105,) energy =    -499.3566679
C           3.8495204     1.9408326    -0.2155351
C           2.8538816     2.5116160    -1.0123121
H           3.0936299     3.3822566    -1.6155095
C           1.5697752     1.9652418    -1.0185726
H           0.7973794     2.4115427    -1.6377615
C           1.2777871     0.8539733    -0.2251579
H           0.2771204     0.4324461    -0.2275215
C           2.2721137     0.2854301     0.5734677
H           2.0479376    -0.5791160     1.1912613
C           3.5596134     0.8242600     0.5775351
H           4.3299671     0.3718367     1.1975321
N           7.9357242     3.1670980     0.0097546
H           8.3070564     2.3789469     0.5556523
H           8.7291337     3.7912941    -0.1736800
C           7.3735465     2.6334497    -1.3007552
H           8.1753567     2.0820371    -1.7976504
H           7.0969723     3.5082476    -1.8926402
C           6.1569633     1.7636127    -0.9997600
H           6.4803063     0.8411440    -0.4771811
H           5.7202655     1.4536899    -1.9528714
N           5.1734417     2.5333865    -0.2466955
C           5.6941791     2.9526284     1.0478313
H           6.0025169     2.1078588     1.6954392
H           4.9201035     3.5042787     1.5879466
C           6.8831535     3.8862584     0.8424311
H           7.3576146     4.1797724     1.7819358
H           6.5962541     4.7727689     0.2734048
27
010_C10H15N2+_1-0-20-17 (-90,) energy =    -499.3567856
C           3.8536649     1.9383262    -0.1827121
C           2.9225959     2.3913883    -1.1229678
H           3.2073457     3.1804958    -1.8131353
C           1.6409803     1.8428724    -1.1554721
H           0.9211128     2.1991403    -1.8862951
C           1.2788257     0.8532582    -0.2386970
H           0.2773702     0.4343188    -0.2585401
C           2.2039732     0.4085365     0.7065452
H           1.9271933    -0.3599807     1.4221919
C           3.4940197     0.9425979     0.7324809
H           4.2087242     0.5785310     1.4658201
N           7.9399604     3.1824162    -0.0208867
H           8.3486744     2.3589453     0.4395178
H           8.7143822     3.8343505    -0.1883798
C           7.3235683     2.7483863    -1.3437644
H           8.1073175     2.2502132    -1.9194533
H           7.0111098     3.6641948    -1.8495024
C           6.1311441     1.8401135    -1.0604073
H           6.4843862     0.8825507    -0.6280538
H           5.6545888     1.6020690    -2.0147775
N           5.1753303     2.5293689    -0.1999407
C           5.7545599     2.8398434     1.0984951
H           6.1132116     1.9478797     1.6498239
H           5.0021964     3.3250090     1.7260007
C           6.9181353     3.8101114     0.9173794
H           7.4329496     4.0315217     1.8554384
H           6.5913921     4.7361530     0.4403240
27
010_C10H15N2+_1-0-20-17 (-75,) energy =    -499.3571742
C           3.8581430     1.9271165    -0.1558007
C           2.9977543     2.2487686    -1.2132621
H           3.3325367     2.9376380    -1.9843129
C           1.7141832     1.7094474    -1.2590297
H           1.0538199     1.9663416    -2.0819410
C           1.2695998     0.8638419    -0.2391668
H           0.2647521     0.4541287    -0.2695044
C           2.1197870     0.5556623     0.8217677
H           1.7825055    -0.0997469     1.6192999
C           3.4160302     1.0758804     0.8627748
H           4.0688392     0.8085961     1.6886024
N           7.9406358     3.1938984    -0.0410276
H           8.3801783     2.3403552     0.3271010
H           8.6980385     3.8716224    -0.1821800
C           7.2731777     2.8667731    -1.3695453
H           8.0373079     2.4339743    -2.0196303
H           6.9263302     3.8175973    -1.7792363
C           6.1081431     1.9159917    -1.1158093
H           6.4935212     0.9330143    -0.7784168
H           5.5976198     1.7472000    -2.0667363
N           5.1790269     2.5084209    -0.1591647
C           5.8083018     2.7173340     1.1337955
H           6.1997007     1.7864114     1.5907322
H           5.0787124     3.1370723     1.8315419
C           6.9511924     3.7182089     0.9902054
H           7.5019881     3.8633101     1.9227106
H           6.5929686     4.6778848     0.6126131
27
010_C10H15N2+_1-0-20-17 (-60,) energy =    -499.3570362
C           3.8636901     1.9182935    -0.1353645
C           3.0684004     2.1062743    -1.2753467
H           3.4474176     2.6872755    -2.1119356
C           1.7768130     1.5885489    -1.3234682
H           1.1709067     1.7466573    -2.2107161
C           1.2537214     0.8910733    -0.2316223
H           0.2431526     0.4966090    -0.2677348
C           2.0386874     0.7110878     0.9050441
H           1.6455326     0.1678701     1.7592757
C           3.3432675     1.2099109     0.9541871
H           3.9415919     1.0288975     1.8416113
N           7.9413747     3.2146625    -0.0583433
H           8.4092800     2.3418070     0.2185921
H           8.6811599     3.9170264    -0.1694958
C           7.2262058     2.9879448    -1.3824068
H           7.9710321     2.6312016    -2.0978334
H           6.8420423     3.9615367    -1.6936078
C           6.0962531     1.9884701    -1.1634042
H           6.5223849     0.9943878    -0.9199805
H           5.5581318     1.8771121    -2.1060175
N           5.1922611     2.4688060    -0.1259422
C           5.8601174     2.6034331     1.1544087
H           6.2717290     1.6482405     1.5375296
H           5.1508232     2.9712185     1.9002887
C           6.9837634     3.6311333     1.0482735
H           7.5668636     3.7086152     1.9691569
H           6.5973472     4.6124900     0.7661749
27
010_C10H15N2+_1-0-20-17 (-45,) energy =    -499.3556944
C           3.8574830     1.8913875    -0.1416957
C           3.1115760     1.9481739    -1.3300810
H           3.5242918     2.4114651    -2.2213906
C           1.8056732     1.4661475    -1.3678925
H           1.2448135     1.5301879    -2.2956497
C           1.2149343     0.9206632    -0.2265401
H           0.1953569     0.5502614    -0.2588592
C           1.9524479     0.8578617     0.9530330
H           1.5149602     0.4278203     1.8492005
C           3.2681190     1.3250681     0.9976161
H           3.8226545     1.2191572     1.9238656
N           7.9270428     3.2332879    -0.0901548
H           8.4222755     2.3535070     0.1062943
H           8.6474903     3.9595187    -0.1712437
C           7.1714400     3.0879590    -1.4020139
H           7.8987237     2.8085795    -2.1681610
H           6.7499254     4.0704599    -1.6244467
C           6.0813965     2.0376564    -1.2239060
H           6.5505992     1.0440715    -1.0756338
H           5.5229113     1.9791758    -2.1575820
N           5.2002703     2.3938366    -0.1231812
C           5.8979318     2.4844391     1.1425474
H           6.3334659     1.5196842     1.4702310
H           5.2051671     2.8062215     1.9233036
C           6.9946322     3.5445714     1.0694833
H           7.6025146     3.5745882     1.9770307
H           6.5760678     4.5326272     0.8677103
27
010_C10H15N2+_1-0-20-17 (-30,) energy =    -499.3535324
C           3.8484558     1.8807921    -0.1512909
C           3.1505031     1.7508863    -1.3647331
H           3.5926505     2.0509597    -2.3081858
C           1.8390889     1.2805006    -1.3857474
H           1.3251331     1.2035267    -2.3393685
C           1.1900443     0.9155128    -0.2069633
H           0.1690866     0.5485495    -0.2285908
C           1.8800309     1.0253486     0.9971975
H           1.4034069     0.7360303     1.9291925
C           3.1958637     1.4899034     1.0299144
H           3.6945249     1.5187698     1.9914024
N           7.9338511     3.2224996    -0.0895512
H           8.4242102     2.3242051     0.0130366
H           8.6593189     3.9475960    -0.1228282
C           7.1384532     3.2057998    -1.3832764
H           7.8382547     3.0003873    -2.1968467
H           6.7156345     4.2063205    -1.4965648
C           6.0483573     2.1455783    -1.2809802
H           6.5140182     1.1401952    -1.2540776
H           5.4775022     2.1963777    -2.2059867
N           5.1926002     2.3827781    -0.1300950
C           5.9262863     2.3795382     1.1202613
H           6.3553194     1.3882215     1.3651008
H           5.2647263     2.6533469     1.9430077
C           7.0289851     3.4349219     1.1109974
H           7.6532329     3.3822251     2.0062054
H           6.6143739     4.4396092     1.0051260
27
010_C10H15N2+_1-0-20-17 (-15,) energy =    -499.3536047
C           3.8385674     1.8942337    -0.1427458
C           3.2469268     1.4726455    -1.3441202
H           3.7794845     1.5125303    -2.2866357
C           1.9517231     0.9511941    -1.3565598
H           1.5269776     0.6255449    -2.3015187
C           1.2134702     0.8436282    -0.1815132
H           0.2080705     0.4354627    -0.1954901
C           1.7877236     1.2765789     1.0133162
H           1.2278672     1.2174343     1.9420046
C           3.0775381     1.8022541     1.0357481
H           3.4593392     2.1634022     1.9841720
N           7.9478874     3.1830669    -0.0661621
H           8.4063017     2.2641193    -0.1166584
H           8.6989773     3.8812226    -0.0247200
C           7.1035785     3.3860811    -1.3112166
H           7.7587553     3.2622432    -2.1766661
H           6.7367099     4.4136642    -1.2668605
C           5.9495238     2.3897779    -1.3228175
H           6.3315248     1.3621609    -1.4760966
H           5.3538818     2.6453604    -2.2005101
N           5.1399601     2.5184270    -0.1179044
C           5.9546964     2.2402079     1.0647292
H           6.3583411     1.2089562     1.0601472
H           5.3615243     2.3386274     1.9723280
C           7.0955293     3.2413706     1.1889555
H           7.7455430     3.0211815     2.0389918
H           6.7216859     4.2650396     1.2596431
27
010_C10H15N2+_1-0-20-17 (0,) energy =    -499.3557934
C           3.8440513     1.8999554    -0.1442280
C           3.3249928     1.3032106    -1.3004285
H           3.9202654     1.2026183    -2.2011897
C           2.0265426     0.7857021    -1.3041439
H           1.6476258     0.3209138    -2.2095432
C           1.2296042     0.8551372    -0.1650426
H           0.2230638     0.4492844    -0.1720856
C           1.7387465     1.4633755     0.9846599
H           1.1254402     1.5456526     1.8770895
C           3.0262251     1.9918498     0.9940996
H           3.3753740     2.5092825     1.8828579
N           7.9365412     3.1917685    -0.0780643
H           8.4024787     2.2877100    -0.2291390
H           8.6822146     3.8916181     0.0075875
C           7.0577519     3.5003214    -1.2790940
H           7.6942827     3.4664064    -2.1664905
H           6.6800159     4.5137826    -1.1297147
C           5.9148688     2.4924517    -1.3499010
H           6.3113162     1.4883219    -1.5971488
H           5.2795880     2.8033810    -2.1826374
N           5.1476804     2.5153901    -0.1143928
C           5.9913802     2.1204807     1.0142226
H           6.4064332     1.1014457     0.8855863
H           5.4099345     2.1062774     1.9359668
C           7.1269756     3.1172184     1.2065970
H           7.8097056     2.8223376     2.0070105
H           6.7468234     4.1243517     1.3898586
27
010_C10H15N2+_1-0-20-17 (15,) energy =    -499.3570806
C           3.8522958     1.9164787    -0.1514436
C           3.3936885     1.1678927    -1.2414043
H           4.0365812     0.9626513    -2.0914578
C           2.0930507     0.6557233    -1.2397559
H           1.7492456     0.0779466    -2.0925904
C           1.2485919     0.8708328    -0.1530893
H           0.2409167     0.4673710    -0.1545372
C           1.7066185     1.6179302     0.9354379
H           1.0526044     1.8067923     1.7815452
C           2.9938679     2.1479395     0.9333308
H           3.3246917     2.7679333     1.7623904
N           7.9380352     3.1935131    -0.0978752
H           8.4038287     2.3082171    -0.3357218
H           8.6826373     3.8889105     0.0245714
C           7.0278970     3.5943328    -1.2491516
H           7.6446740     3.6408291    -2.1498667
H           6.6449754     4.5874567    -1.0060520
C           5.8946454     2.5798721    -1.3704607
H           6.3071062     1.6057817    -1.7009519
H           5.2246360     2.9310891    -2.1596652
N           5.1683806     2.5010247    -0.1151355
C           6.0292105     2.0254066     0.9643157
H           6.4417820     1.0177237     0.7579227
H           5.4564284     1.9473333     1.8901571
C           7.1693632     3.0085721     1.2022704
H           7.8793832     2.6538491     1.9531412
H           6.7927688     3.9955915     1.4785406
27
010_C10H15N2+_1-0-20-17 (30,) energy =    -499.3571452
C           3.8425650     1.9271588    -0.1467412
C           3.4500516     1.0293638    -1.1455718
H           4.1434748     0.7249830    -1.9242911
C           2.1517611     0.5129395    -1.1459329
H           1.8518731    -0.1773255    -1.9288557
C           1.2514391     0.8684685    -0.1424982
H           0.2451372     0.4611728    -0.1435666
C           1.6480434     1.7565690     0.8607918
H           0.9491136     2.0480396     1.6391301
C           2.9341239     2.2921913     0.8547239
H           3.2342544     3.0115681     1.6120334
N           7.9258217     3.1923229    -0.1033845
H           8.3828370     2.3312900    -0.4306803
H           8.6752933     3.8746512     0.0565577
C           6.9848804     3.6904025    -1.1915951
H           7.5789446     3.8172395    -2.0999295
H           6.6064957     4.6566059    -0.8523045
C           5.8528577     2.6818914    -1.3661033
H           6.2684256     1.7435891    -1.7853562
H           5.1538237     3.0831603    -2.1046657
N           5.1671267     2.4970322    -0.0991700
C           6.0488807     1.9337277     0.9164027
H           6.4530182     0.9435212     0.6247748
H           5.4926062     1.7884220     1.8452464
C           7.1984829     2.8949226     1.2006266
H           7.9331141     2.4807376     1.8953614
H           6.8307783     3.8541276     1.5706027
27
010_C10H15N2+_1-0-20-17 (45,) energy =    -499.3567484
C           3.8337658     1.9396069    -0.1198695
C           3.5223168     0.8948647    -0.9974830
H           4.2755786     0.4935169    -1.6705121
C           2.2317463     0.3620927    -1.0122387
H           1.9916226    -0.4434968    -1.6997833
C           1.2586555     0.8551082    -0.1417603
H           0.2568786     0.4365566    -0.1532797
C           1.5741855     1.8903026     0.7412529
H           0.8185457     2.2822775     1.4154817
C           2.8572066     2.4369345     0.7487807
H           3.1080906     3.2580958     1.4142129
N           7.9240873     3.1773181    -0.1214946
H           8.3512522     2.3443524    -0.5468469
H           8.6916903     3.8314363     0.0674638
C           6.9465419     3.7875588    -1.1168011
H           7.5038269     3.9923249    -2.0341599
H           6.5987458     4.7218233    -0.6717438
C           5.7920221     2.8135277    -1.3332538
H           6.1743126     1.9137375    -1.8554745
H           5.0670752     3.2883322    -1.9996777
N           5.1577107     2.5217629    -0.0569537
C           6.0712472     1.8536982     0.8624219
H           6.4461188     0.8873113     0.4693289
H           5.5499363     1.6361846     1.7981173
C           7.2485623     2.7701760     1.1809480
H           8.0057727     2.2857424     1.8021212
H           6.9124795     3.6959047     1.6522683
27
010_C10H15N2+_1-0-20-17 (60,) energy =    -499.3565699
C           3.8267498     1.9418708    -0.0753536
C           3.5836203     0.7774074    -0.8136453
H           4.3905063     0.2873443    -1.3535246
C           2.2964200     0.2399105    -0.8582782
H           2.1078244    -0.6621536    -1.4327941
C           1.2551543     0.8592215    -0.1638445
H           0.2546277     0.4388227    -0.1994163
C           1.5002321     2.0184980     0.5746637
H           0.6913685     2.5025011     1.1137746
C           2.7849556     2.5620506     0.6185219
H           2.9903189     3.4667412     1.1829872
N           7.9200852     3.1616497    -0.1586093
H           8.3088003     2.3655877    -0.6804286
H           8.7081961     3.7859809     0.0460025
C           6.9009010     3.8725748    -1.0385015
H           7.4104016     4.1536509    -1.9633381
H           6.5954562     4.7666224    -0.4913434
C           5.7176919     2.9392218    -1.2763455
H           6.0455414     2.0864261    -1.9035959
H           4.9647609     3.4869813    -1.8493064
N           5.1493297     2.5339028     0.0029558
C           6.1032356     1.7725266     0.8009726
H           6.4467177     0.8441392     0.3023050
H           5.6310018     1.4739110     1.7406760
C           7.3081882     2.6459903     1.1366555
H           8.0899987     2.1009378     1.6710683
H           7.0099397     3.5286506     1.7058743
27
010_C10H15N2+_1-0-20-17 (75,) energy =    -499.3566783
C           3.8228928     1.9133223    -0.0333292
C           3.6067352     0.6597004    -0.6176552
H           4.4380396     0.0878322    -1.0231431
C           2.3139240     0.1376101    -0.6809886
H           2.1485265    -0.8364939    -1.1316563
C           1.2380340     0.8671155    -0.1709768
H           0.2329827     0.4593887    -0.2225504
C           1.4549790     2.1195856     0.4069027
H           0.6209125     2.6879243     0.8075410
C           2.7468052     2.6424334     0.4790154
H           2.9330994     3.6101702     0.9352410
N           7.9003344     3.1788347    -0.1840755
H           8.2729132     2.4367731    -0.7904202
H           8.6908220     3.7934591     0.0398644
C           6.8361800     3.9503536    -0.9524538
H           7.2996535     4.3147618    -1.8723929
H           6.5507941     4.7913362    -0.3173434
C           5.6490189     3.0285528    -1.2136991
H           5.9449982     2.2358721    -1.9296702
H           4.8644537     3.6174243    -1.6961848
N           5.1471937     2.5000288     0.0497159
C           6.1455382     1.6821658     0.7259953
H           6.4844280     0.8129506     0.1279075
H           5.7222701     1.2873938     1.6534768
C           7.3524846     2.5430766     1.0863607
H           8.1640838     1.9663476     1.5365221
H           7.0682507     3.3675643     1.7431782
27
010_C10H15N2+_1-0-20-17 (90,) energy =    -499.3567998
C           3.8265034     1.8902293    -0.0198886
C           3.6111732     0.5715017    -0.4359381
H           4.4467376    -0.0692173    -0.7050168
C           2.3099937     0.0692611    -0.5062391
H           2.1467409    -0.9568966    -0.8220315
C           1.2244390     0.8838775    -0.1824554
H           0.2139822     0.4910421    -0.2414037
C           1.4405281     2.2033814     0.2217577
H           0.5991989     2.8384807     0.4825750
C           2.7385637     2.7049452     0.3102425
H           2.9199346     3.7214023     0.6480822
N           7.8832431     3.2260978    -0.1908821
H           8.2543569     2.5519374    -0.8727216
H           8.6661330     3.8369180     0.0675458
C           6.7806340     4.0386825    -0.8559245
H           7.2074134     4.4914775    -1.7540870
H           6.5006942     4.8150509    -0.1410891
C           5.6026108     3.1187922    -1.1611087
H           5.8867530     2.3964136    -1.9523612
H           4.7926503     3.7313930    -1.5651402
N           5.1521265     2.4658681     0.0634165
C           6.1878118     1.6110150     0.6238107
H           6.5304664     0.8160489    -0.0681698
H           5.8049177     1.1148525     1.5196011
C           7.3864505     2.4634339     1.0297970
H           8.2228054     1.8660407     1.4008044
H           7.1053305     3.2162476     1.7688078
27
010_C10H15N2+_1-0-20-17 (105,) energy =    -499.3571701
C           3.8793556     1.8623344    -0.2732444
C           2.9612916     2.2809401     0.6960385
H           3.2431611     3.0047218     1.4551925
C           1.6633610     1.7632082     0.6948895
H           0.9543235     2.0985890     1.4459910
C           1.2834640     0.8141680    -0.2529604
H           0.2755111     0.4110304    -0.2475114
C           2.2041776     0.3894181    -1.2145035
H           1.9127586    -0.3400254    -1.9643400
C           3.4931500     0.9174054    -1.2322805
H           4.1998615     0.6172226    -2.0013980
N           7.8945301     3.2944820     0.0625623
H           7.9892813     3.3175389     1.0861469
H           8.7914654     3.6158630    -0.3183518
C           7.6222054     1.8610399    -0.3720131
H           8.4319392     1.2422700     0.0220541
H           7.6482993     1.8630421    -1.4635805
C           6.2517985     1.4394000     0.1474833
H           6.2761927     1.3673311     1.2532788
H           6.0415728     0.4366349    -0.2314070
N           5.2305846     2.3668811    -0.3279488
C           5.4516276     3.7092395     0.1825027
H           5.4561025     3.7662803     1.2894361
H           4.6558725     4.3701643    -0.1713629
C           6.7784801     4.2454011    -0.3471313
H           7.0261862     5.2291925     0.0588505
H           6.7864608     4.2767489    -1.4383742
27
010_C10H15N2+_1-0-20-17 (120,) energy =    -499.3570882
C           3.8780567     1.8520382    -0.2381134
C           2.8964652     2.3909407     0.6016867
H           3.1314847     3.1936277     1.2936264
C           1.5945188     1.8834016     0.5716826
H           0.8422177     2.3117923     1.2273532
C           1.2647600     0.8301097    -0.2781915
H           0.2536001     0.4358219    -0.2946027
C           2.2449572     0.2905164    -1.1152417
H           1.9966031    -0.5200840    -1.7938898
C           3.5391256     0.8036232    -1.1060667
H           4.2813590     0.4094418    -1.7951747
N           7.9018939     3.2837530     0.0307336
H           8.0488073     3.2316189     1.0471950
H           8.7767727     3.6396945    -0.3703196
C           7.6115033     1.8851532    -0.4941527
H           8.4440956     1.2448320    -0.1930983
H           7.5752634     1.9678551    -1.5823409
C           6.2759284     1.4174356     0.0725888
H           6.3672795     1.2745084     1.1681198
H           6.0531837     0.4381986    -0.3545242
N           5.2222489     2.3635439    -0.2740768
C           5.4623762     3.6735860     0.3009277
H           5.5060665     3.6663798     1.4084358
H           4.6549705     4.3523694     0.0143522
C           6.7624637     4.2517420    -0.2517085
H           7.0252306     5.2056555     0.2120150
H           6.7164501     4.3631435    -1.3367983
27
010_C10H15N2+_1-0-20-17 (135,) energy =    -499.3559170
C           3.8842828     1.8388708    -0.1902644
C           2.8505790     2.4809582     0.5048918
H           3.0459233     3.3444644     1.1318038
C           1.5440879     1.9906079     0.4357139
H           0.7598401     2.5002804     0.9876073
C           1.2483806     0.8577959    -0.3180072
H           0.2328992     0.4778318    -0.3655327
C           2.2749286     0.2209132    -1.0185337
H           2.0606706    -0.6535032    -1.6258984
C           3.5773075     0.7102900    -0.9678706
H           4.3436890     0.2272528    -1.5670200
N           7.9109365     3.2929761     0.0034905
H           8.1099585     3.1737594     1.0054669
H           8.7608698     3.6862893    -0.4159939
C           7.6032924     1.9315418    -0.6005953
H           8.4566632     1.2816092    -0.3926402
H           7.5037892     2.0883089    -1.6766947
C           6.3094666     1.4078317     0.0111044
H           6.4726808     1.1932469     1.0865088
H           6.0803998     0.4538867    -0.4635578
N           5.2236979     2.3542934    -0.1992748
C           5.4807643     3.6380118     0.4214249
H           5.5634693     3.5814292     1.5249320
H           4.6636857     4.3265690     0.1945412
C           6.7491445     4.2601994    -0.1577196
H           7.0244905     5.1875441     0.3504292
H           6.6472412     4.4384359    -1.2301064
27
010_C10H15N2+_1-0-20-17 (150,) energy =    -499.3538141
C           3.8801265     1.8164447    -0.1590431
C           2.8111522     2.5537690     0.3754609
H           2.9735286     3.4859308     0.9040538
C           1.5016438     2.0793446     0.2819846
H           0.6985700     2.6688683     0.7144024
C           1.2234752     0.8676294    -0.3445689
H           0.2043966     0.5010101    -0.4124105
C           2.2792123     0.1353172    -0.8870483
H           2.0882993    -0.8070990    -1.3918782
C           3.5890814     0.6026172    -0.8060468
H           4.3668927     0.0163085    -1.2832850
N           7.9145045     3.2892351    -0.0180764
H           8.1616446     3.0990441     0.9620720
H           8.7404813     3.7215633    -0.4470277
C           7.5843038     1.9755608    -0.7062401
H           8.4503846     1.3191647    -0.5923733
H           7.4284931     2.2113299    -1.7610951
C           6.3287168     1.3897507    -0.0712244
H           6.5513305     1.0925657     0.9731330
H           6.0986853     0.4722203    -0.6094455
N           5.2204821     2.3276206    -0.1479453
C           5.5017546     3.5746066     0.5351350
H           5.6275521     3.4498559     1.6284143
H           4.6806440     4.2767048     0.3852101
C           6.7376924     4.2486152    -0.0559015
H           7.0252574     5.1417019     0.5041863
H           6.5850161     4.5016270    -1.1071284
27
010_C10H15N2+_1-0-20-17 (165,) energy =    -499.3532658
C           3.8702609     1.8696030    -0.2812157
C           2.7819527     2.6895684     0.0647931
H           2.9115587     3.7426613     0.2854467
C           1.4847587     2.1810066     0.0937220
H           0.6674649     2.8457723     0.3574202
C           1.2331098     0.8441811    -0.2102253
H           0.2217850     0.4516333    -0.1840454
C           2.3056449     0.0222702    -0.5452558
H           2.1407235    -1.0249298    -0.7810834
C           3.6089801     0.5206137    -0.5744685
H           4.4022868    -0.1731872    -0.8240551
N           7.9289189     3.2743579     0.0779904
H           8.1333723     2.9220072     1.0221000
H           8.7782139     3.7512687    -0.2453365
C           7.5991576     2.1038031    -0.8295089
H           8.4419484     1.4096496    -0.7916750
H           7.5022632     2.5161194    -1.8360855
C           6.3010648     1.4465618    -0.3747580
H           6.4499198     0.9371989     0.5968748
H           6.0966754     0.6713469    -1.1140523
N           5.2070643     2.4081392    -0.3437766
C           5.5095866     3.4996075     0.5781617
H           5.6145766     3.1483319     1.6231499
H           4.7091237     4.2374994     0.5750177
C           6.7666776     4.2473528     0.1530525
H           7.0373940     5.0306050     0.8649325
H           6.6580535     4.6731651    -0.8467408
27
010_C10H15N2+_1-0-20-17 (180,) energy =    -499.3554758
C           3.8771267     1.8697290    -0.3034528
C           2.7848756     2.7414684    -0.1636678
H           2.9345006     3.8168279    -0.1483548
C           1.4853050     2.2453227    -0.1085168
H           0.6566968     2.9405527    -0.0116053
C           1.2445149     0.8723909    -0.1898881
H           0.2301628     0.4885693    -0.1497263
C           2.3236462     0.0034900    -0.3247550
H           2.1585450    -1.0682694    -0.3836540
C           3.6325433     0.4911104    -0.3697116
H           4.4430175    -0.2251978    -0.4424297
N           7.9223091     3.2657520     0.0644938
H           8.1747337     2.8234937     0.9576765
H           8.7495639     3.7882669    -0.2450283
C           7.5749635     2.1825349    -0.9428546
H           8.4302719     1.5053791    -1.0027835
H           7.4328924     2.6889710    -1.8997145
C           6.3015403     1.4655943    -0.5061826
H           6.4924622     0.8813053     0.4150514
H           6.0650621     0.7513579    -1.2984474
N           5.2100215     2.4162855    -0.3609037
C           5.5275669     3.3925642     0.6817071
H           5.6932485     2.9092967     1.6647041
H           4.7028089     4.0921429     0.8138207
C           6.7538395     4.2098213     0.2965514
H           7.0495132     4.9102777     1.0811471
H           6.5983660     4.7437246    -0.6432899
