15
168_C5H7FO2_3-0-1-10 (-165,) energy =    -444.9987103
O           1.1496591    -0.9674095     0.0773778
C           2.1987574    -1.0582371    -0.7561086
O           2.2341438    -1.7565519    -1.7494947
C           0.1243360    -1.9564991    -0.1224115
H           0.5487419    -2.9611104    -0.0459875
H          -0.6027996    -1.7835794     0.6709670
H          -0.3421989    -1.8399277    -1.1039290
C           4.3090020     0.3279833    -1.3068178
H           4.7156494     1.3045008    -1.0623962
H           4.0685054     0.1581731    -2.3513741
C           3.3708255    -0.2578151    -0.2845918
F           3.1540712     0.4719351     0.8547588
C           4.7475098    -0.8464007    -0.4708206
H           4.8104948    -1.8230268    -0.9394711
H           5.4442688    -0.6585936     0.3404905
15
168_C5H7FO2_3-0-1-10 (-150,) energy =    -444.9950370
O           1.0518622    -0.8395705    -0.0190963
C           2.1125859    -0.9283471    -0.8431352
O           2.1478351    -1.6029800    -1.8519248
C           0.1488220    -1.9587999    -0.0577940
H           0.6925096    -2.8851877     0.1483567
H          -0.5863001    -1.7657556     0.7236234
H          -0.3401647    -2.0376727    -1.0320441
C           4.3259544     0.3413039    -1.2818069
H           4.7879434     1.2802897    -0.9929579
H           4.1130837     0.2182913    -2.3388929
C           3.3129616    -0.2093769    -0.3134513
F           3.1043136     0.4986689     0.8407987
C           4.6547485    -0.8841971    -0.4695985
H           4.6720087    -1.8484412    -0.9667249
H           5.3298277    -0.7670586     0.3728299
15
168_C5H7FO2_3-0-1-10 (-135,) energy =    -444.9899653
O           0.9945129    -0.7781073    -0.1339937
C           2.0774652    -0.8529171    -0.9399661
O           2.1116067    -1.4527848    -1.9934329
C           0.2198828    -1.9828956    -0.0094873
H           0.7788732    -2.7174216     0.5797150
H          -0.6914319    -1.7009576     0.5185075
H          -0.0221021    -2.3977764    -0.9909401
C           4.3523521     0.3525980    -1.2444147
H           4.8472411     1.2459648    -0.8763039
H           4.1560773     0.3197744    -2.3113481
C           3.2952430    -0.2240554    -0.3398195
F           3.0960150     0.4020768     0.8621927
C           4.6116942    -0.9438301    -0.5240250
H           4.5982424    -1.8674213    -1.0931644
H           5.2716254    -0.9209968     0.3380574
15
168_C5H7FO2_3-0-1-10 (-120,) energy =    -444.9849964
O           0.9156257    -0.7184086    -0.2890499
C           2.0461409    -0.8283622    -1.0340384
O           2.1016705    -1.3873322    -2.1067911
C           0.2609208    -1.9502625     0.0496427
H           0.8246323    -2.4663884     0.8349840
H          -0.7261628    -1.6792128     0.4261521
H           0.1614045    -2.5939388    -0.8293296
C           4.3425828     0.3657344    -1.2012484
H           4.8339061     1.2262484    -0.7576930
H           4.1698697     0.4132839    -2.2717636
C           3.2588011    -0.2652748    -0.3635595
F           3.0391413     0.2738095     0.8766260
C           4.5744812    -0.9805620    -0.5713573
H           4.5644243    -1.8611279    -1.2051550
H           5.2152460    -1.0262106     0.3041496
15
168_C5H7FO2_3-0-1-10 (-105,) energy =    -444.9815656
O           0.8740181    -0.7226781    -0.4945714
C           2.0641793    -0.8953868    -1.1381469
O           2.1687618    -1.4206095    -2.2217869
C           0.3062107    -1.8955318     0.1029817
H           0.8903535    -2.1983232     0.9801278
H          -0.7022932    -1.6210287     0.4151325
H           0.2576537    -2.7166843    -0.6204448
C           4.3207569     0.3801853    -1.1289580
H           4.7580427     1.2189239    -0.5958706
H           4.1780222     0.5159956    -2.1963973
C           3.2415738    -0.3676500    -0.3823983
F           2.9593075     0.0519894     0.8925356
C           4.5918423    -1.0040275    -0.6071294
H           4.6349232    -1.8270465    -1.3130002
H           5.2124436    -1.0977618     0.2789059
15
168_C5H7FO2_3-0-1-10 (-90,) energy =    -444.9809151
O           0.8287602    -0.7564655    -0.6863582
C           2.0584558    -0.9314729    -1.2543797
O           2.2140514    -1.3714488    -2.3680354
C           0.3524522    -1.8316042     0.1341891
H           0.9937893    -1.9672315     1.0125990
H          -0.6488232    -1.5436156     0.4573056
H           0.2982032    -2.7623749    -0.4420147
C           4.2827760     0.3823716    -1.0800660
H           4.6713660     1.2011115    -0.4820175
H           4.1780639     0.5754545    -2.1429343
C           3.1989196    -0.4379665    -0.4212981
F           2.8541020    -0.0970898     0.8648332
C           4.5736207    -1.0218916    -0.6247613
H           4.6683763    -1.8015587    -1.3737588
H           5.1648744    -1.1490011     0.2770340
15
168_C5H7FO2_3-0-1-10 (-75,) energy =    -444.9821033
O           0.8181471    -0.8107837    -0.8179627
C           2.0740644    -0.9002755    -1.3383521
O           2.2766849    -1.2112956    -2.4877447
C           0.4352804    -1.7866779     0.1635915
H           1.1158080    -1.7815987     1.0199646
H          -0.5653487    -1.5024639     0.4920484
H           0.4005303    -2.7842073    -0.2888753
C           4.3055953     0.3693144    -1.0373032
H           4.6795424     1.1708423    -0.4074573
H           4.2465739     0.5818996    -2.0996224
C           3.1846100    -0.4460070    -0.4403678
F           2.7956594    -0.1140953     0.8380422
C           4.5589420    -1.0466842    -0.5956047
H           4.6755000    -1.8134249    -1.3549614
H           5.1109545    -1.1987964     0.3269899
15
168_C5H7FO2_3-0-1-10 (-60,) energy =    -444.9835554
O           0.7989593    -0.9027014    -0.9125323
C           2.0660741    -0.8377096    -1.3941643
O           2.3028922    -0.9989679    -2.5686619
C           0.4961918    -1.7941607     0.1742935
H           1.1771375    -1.6587038     1.0161182
H          -0.5209432    -1.5489169     0.4831188
H           0.5273438    -2.8307062    -0.1792979
C           4.3205758     0.3574531    -0.9793959
H           4.6948933     1.1376598    -0.3236447
H           4.3109106     0.5829082    -2.0402627
C           3.1505473    -0.4239217    -0.4408606
F           2.7279214    -0.0835996     0.8271017
C           4.5099015    -1.0715044    -0.5458972
H           4.6353175    -1.8325587    -1.3096994
H           5.0176335    -1.2539963     0.3965132
15
168_C5H7FO2_3-0-1-10 (-45,) energy =    -444.9851469
O           0.7531095    -0.8971938    -0.9062204
C           2.0098937    -0.7938209    -1.3938386
O           2.2140902    -0.8283839    -2.5857046
C           0.4676466    -1.6485523     0.2885361
H           0.3837965    -0.9838611     1.1505982
H          -0.4879073    -2.1432403     0.1027034
H           1.2343698    -2.4027965     0.4833203
C           4.2814553     0.3387645    -0.9240189
H           4.6855203     1.0362895    -0.1965911
H           4.2323133     0.6861727    -1.9502185
C           3.1294275    -0.5001434    -0.4357738
F           2.7557367    -0.3127207     0.8783857
C           4.4799293    -1.1316677    -0.6679941
H           4.5713012    -1.7976674    -1.5201711
H           5.0233517    -1.4226655     0.2260085
15
168_C5H7FO2_3-0-1-10 (-30,) energy =    -444.9864588
O           0.7574079    -1.0490145    -0.9770947
C           2.0056656    -0.8029663    -1.4256081
O           2.2196338    -0.7537095    -2.6163138
C           0.4809463    -1.6641115     0.2943943
H           0.3801415    -0.9112882     1.0782134
H          -0.4667854    -2.1876078     0.1551314
H           1.2562334    -2.3816871     0.5730666
C           4.2722096     0.3232810    -0.9168056
H           4.6761314     1.0042423    -0.1738355
H           4.2279903     0.6900794    -1.9362289
C           3.1158976    -0.5197246    -0.4505542
F           2.7438672    -0.3528739     0.8679778
C           4.4655401    -1.1529276    -0.6893445
H           4.5606226    -1.8023244    -1.5537505
H           5.0028544    -1.4638337     0.2017477
15
168_C5H7FO2_3-0-1-10 (-15,) energy =    -444.9869992
O           0.7129124    -1.2471103    -1.0362858
C           1.9452159    -0.9013111    -1.4567346
O           2.1606905    -0.8139669    -2.6459429
C           0.3844201    -1.6671931     0.2999682
H           0.3166192    -0.8136539     0.9766838
H          -0.5919314    -2.1453830     0.2049838
H           1.1094050    -2.3864611     0.6867625
C           4.1549481     0.3229506    -0.9301945
H           4.5414695     0.9854057    -0.1615968
H           4.0688544     0.7381330    -1.9281152
C           3.0548287    -0.6024858    -0.4836741
F           2.7155865    -0.5229317     0.8525405
C           4.4288741    -1.1508299    -0.7852206
H           4.5345048    -1.7483535    -1.6847492
H           5.0012157    -1.4793234     0.0772719
15
168_C5H7FO2_3-0-1-10 (0,) energy =    -444.9870885
O           0.7933258    -1.4388277    -1.0540041
C           2.0249572    -1.0640270    -1.4481263
O           2.2615779    -0.9867104    -2.6345721
C           0.3506140    -1.5790860     0.3076766
H           0.4073875    -0.6315089     0.8466101
H          -0.6905143    -1.8942172     0.2222034
H           0.9253463    -2.3398873     0.8390333
C           4.0973828     0.3483358    -0.8437606
H           4.4332611     0.9756260    -0.0234487
H           3.9364248     0.8444851    -1.7946466
C           3.1201897    -0.7367748    -0.4672561
F           2.8261594    -0.8330122     0.8787726
C           4.5346826    -1.0923223    -0.8512807
H           4.6734796    -1.5853739    -1.8072383
H           5.1643062    -1.4348038    -0.0355252
15
168_C5H7FO2_3-0-1-10 (15,) energy =    -444.9869991
O           0.8328030    -1.6429040    -1.0384539
C           2.0486175    -1.2427232    -1.4585993
O           2.2732490    -1.1852352    -2.6479361
C           0.3299353    -1.4876672     0.3005634
H           0.5345467    -0.4903618     0.6955989
H          -0.7478314    -1.6313560     0.2072083
H           0.7493236    -2.2410937     0.9695648
C           3.9776110     0.3375952    -0.7780061
H           4.2736243     0.9208559     0.0889214
H           3.7313571     0.9012953    -1.6718457
C           3.1399628    -0.8839085    -0.4851667
F           2.9054962    -1.1504190     0.8493365
C           4.5676061    -1.0389186    -0.9368604
H           4.7238606    -1.4231542    -1.9386449
H           5.2587424    -1.3821789    -0.1730029
15
168_C5H7FO2_3-0-1-10 (30,) energy =    -444.9864588
O           1.3962244    -2.3057488    -0.0187783
C           2.6161230    -2.0042503    -0.5091616
O           3.2921546    -2.8702428    -1.0182858
C           0.3255691    -1.3493040     0.0832085
H           0.3626552    -0.6140641    -0.7240972
H          -0.5890698    -1.9388971    -0.0028782
H           0.3503027    -0.8368060     1.0464955
C           3.8876253     0.0081164    -1.5335092
H           3.7311888     1.0740109    -1.6704439
H           3.9551509    -0.5842913    -2.4403879
C           3.1674533    -0.6123512    -0.3604277
F           2.4435696     0.2501915     0.4377330
C           4.6620729    -0.4409148    -0.3223817
H           5.2586227    -1.3436257    -0.3930347
H           5.0215569     0.3252470     0.3578244
15
168_C5H7FO2_3-0-1-10 (45,) energy =    -444.9851469
O           1.4421768    -2.2693022     0.1155621
C           2.6068898    -1.9829017    -0.5084370
O           3.2283264    -2.8477087    -1.0823367
C           0.3236593    -1.3632797     0.0767043
H           0.3755312    -0.6955163    -0.7870614
H          -0.5629463    -1.9951616    -0.0068924
H           0.2761538    -0.7706703     0.9924302
C           3.8974148     0.0256703    -1.5293676
H           3.7565680     1.0958014    -1.6485596
H           3.9454551    -0.5543865    -2.4455178
C           3.1799460    -0.6019649    -0.3597914
F           2.4708456     0.2529563     0.4575683
C           4.6787810    -0.4530228    -0.3346093
H           5.2616495    -1.3631570    -0.4247032
H           5.0567719     0.2964898     0.3540951
15
168_C5H7FO2_3-0-1-10 (60,) energy =    -444.9835554
O           1.4746140    -2.2483929     0.0897208
C           2.6229434    -1.9472423    -0.5678751
O           3.1901477    -2.7660503    -1.2529750
C           0.3103958    -1.4259068    -0.0991622
H          -0.0974610    -1.5889473    -1.1029026
H          -0.4137379    -1.7636627     0.6435574
H           0.5276358    -0.3678741     0.0560085
C           3.9018510     0.1364105    -1.4449415
H           3.7758993     1.2149973    -1.4411862
H           3.8851091    -0.3418935    -2.4192450
C           3.2396059    -0.6025866    -0.3076065
F           2.5995092     0.1707080     0.6381495
C           4.7402112    -0.4789977    -0.3567254
H           5.2980206    -1.3826453    -0.5772421
H           5.1724438     0.1862768     0.3845037
15
168_C5H7FO2_3-0-1-10 (75,) energy =    -444.9821033
O           1.5005167    -2.1696107     0.1940220
C           2.5708476    -1.8900552    -0.6012036
O           3.0197495    -2.6911879    -1.3857824
C           0.2751968    -1.4694273    -0.0719130
H          -0.1175726    -1.7548930    -1.0543799
H          -0.4234058    -1.7859147     0.7037873
H           0.4135747    -0.3856755    -0.0185021
C           3.9716336     0.1201767    -1.4639930
H           3.9024632     1.2038012    -1.4612986
H           3.9432877    -0.3586275    -2.4376682
C           3.2516840    -0.5808152    -0.3397207
F           2.6268063     0.2207013     0.5891881
C           4.7600470    -0.5361742    -0.3631110
H           5.2757468    -1.4671296    -0.5742328
H           5.2146173     0.1050633     0.3860023
15
168_C5H7FO2_3-0-1-10 (90,) energy =    -444.9809151
O           1.4838524    -2.0610967     0.2852855
C           2.5074396    -1.8262482    -0.5879498
O           2.8358431    -2.6102671    -1.4455531
C           0.2026685    -1.5349600    -0.0859883
H          -0.1157255    -1.9403533    -1.0532362
H          -0.4921116    -1.8566329     0.6909938
H           0.2253790    -0.4398014    -0.1237273
C           4.0080434     0.1016586    -1.4609054
H           3.9897789     1.1873077    -1.4618299
H           3.9526659    -0.3794337    -2.4321652
C           3.2585520    -0.5580275    -0.3316455
F           2.6672391     0.2734389     0.5893642
C           4.7685698    -0.5855283    -0.3594602
H           5.2407963    -1.5402562    -0.5678722
H           5.2563930     0.0359510     0.3853893
15
168_C5H7FO2_3-0-1-10 (105,) energy =    -444.9815656
O           1.4646815    -1.8879471     0.3704396
C           2.4946398    -1.7366312    -0.5105899
O           2.7293119    -2.5134165    -1.4065719
C           0.1571370    -1.5867890    -0.1341812
H          -0.0383043    -2.1353039    -1.0620391
H          -0.5470730    -1.9041664     0.6359882
H           0.0512668    -0.5085676    -0.3033668
C           4.0253338     0.1267440    -1.4411477
H           4.0498066     1.2122157    -1.4278312
H           3.8869404    -0.3384761    -2.4116566
C           3.3222723    -0.5148086    -0.2693360
F           2.8283242     0.3286357     0.6927841
C           4.8244693    -0.6047147    -0.3979689
H           5.2400017    -1.5760636    -0.6470026
H           5.3880456    -0.0140908     0.3178332
15
168_C5H7FO2_3-0-1-10 (120,) energy =    -444.9849964
O           1.4030497    -1.6894849     0.4343541
C           2.4647086    -1.6626263    -0.4125964
O           2.6379386    -2.4559231    -1.3109292
C           0.1057185    -1.6429299    -0.1784895
H           0.0398285    -2.3538382    -1.0073939
H          -0.6103982    -1.9107286     0.5993427
H          -0.1006156    -0.6269894    -0.5337478
C           4.0094953     0.1416804    -1.4065075
H           4.0832372     1.2244911    -1.3709324
H           3.7747917    -0.2920141    -2.3729540
C           3.3738679    -0.4956480    -0.1917541
F           3.0020563     0.3463751     0.8229760
C           4.8525571    -0.6503566    -0.4447922
H           5.1979065    -1.6336225    -0.7481507
H           5.5017024    -0.1035174     0.2321175
15
168_C5H7FO2_3-0-1-10 (135,) energy =    -444.9899652
O           1.3622887    -1.5109150     0.4125892
C           2.4348462    -1.5652490    -0.4090382
O           2.5619061    -2.3506689    -1.3242775
C           0.0826067    -1.7106952    -0.2113810
H           0.0845202    -2.6091009    -0.8333253
H          -0.6356886    -1.8140423     0.6023454
H          -0.1679625    -0.8351886    -0.8195734
C           4.0370733     0.1973444    -1.3734693
H           4.1674513     1.2725192    -1.2945545
H           3.7489921    -0.1804018    -2.3488761
C           3.4132962    -0.4603951    -0.1636112
F           3.1207392     0.3525417     0.8994072
C           4.8702426    -0.6790270    -0.4765595
H           5.1524444    -1.6639755    -0.8346298
H           5.5715031    -0.1960821     0.1968809
15
168_C5H7FO2_3-0-1-10 (150,) energy =    -444.9950370
O           1.3221006    -1.3784338     0.3824734
C           2.3778518    -1.4575448    -0.4488992
O           2.4454847    -2.1968483    -1.4095686
C           0.0647556    -1.7929620    -0.1804732
H           0.0720871    -2.8593424    -0.4197896
H          -0.6808151    -1.5788705     0.5854066
H          -0.1446608    -1.2213449    -1.0891463
C           4.0790124     0.2598365    -1.3210861
H           4.2814974     1.3171153    -1.1786327
H           3.7606542    -0.0370757    -2.3149133
C           3.4232382    -0.4301461    -0.1489003
F           3.1889331     0.3291586     0.9672128
C           4.8603743    -0.7234877    -0.4890636
H           5.0764204    -1.6998542    -0.9108450
H           5.5959375    -0.3288305     0.2050184
15
168_C5H7FO2_3-0-1-10 (165,) energy =    -444.9987103
O           1.2813049    -1.2304573     0.2736696
C           2.3316309    -1.3238629    -0.5580138
O           2.3797323    -2.0479423    -1.5322249
C           0.0750419    -1.8595409    -0.1939531
H           0.2095333    -2.9406355    -0.2822121
H          -0.6815865    -1.6270427     0.5554096
H          -0.2086917    -1.4543980    -1.1689094
C           4.1672006     0.3066791    -1.3288904
H           4.4376678     1.3427318    -1.1488482
H           3.8630647     0.0601495    -2.3408764
C           3.4261657    -0.3690403    -0.2015833
F           3.2044859     0.3709626     0.9301748
C           4.8511764    -0.7519085    -0.5031526
H           5.0159949    -1.7281707    -0.9475943
H           5.5864276    -0.4288131     0.2274054
15
168_C5H7FO2_3-0-1-10 (180,) energy =    -445.0000223
O           1.2131859    -1.0934024     0.1882159
C           2.2552301    -1.1898646    -0.6517038
O           2.2879490    -1.9021241    -1.6354997
C           0.0808786    -1.9137279    -0.1498451
H           0.3606531    -2.9703840    -0.1505016
H          -0.6625392    -1.7122737     0.6213509
H          -0.3040146    -1.6464910    -1.1373460
C           4.2382822     0.3154440    -1.3235230
H           4.5835125     1.3237503    -1.1162341
H           3.9606630     0.1070006    -2.3516672
C           3.3960256    -0.3133883    -0.2435100
F           3.1821648     0.4248718     0.8909968
C           4.7996578    -0.8058318    -0.4879775
H           4.9081830    -1.7859128    -0.9410262
H           5.5221010    -0.5515847     0.2815963
