15
168_C5H7FO2_0-1-10-12 (-165,) energy =    -444.9946242
O           1.2204145    -0.9446466    -0.0512497
C           2.4046141    -1.4694406    -0.4121257
O           2.5370218    -2.5180175    -1.0067289
C           0.0734612    -1.7636013    -0.3371910
H           0.1537641    -2.7279295     0.1712547
H          -0.7837590    -1.2030647     0.0358125
H          -0.0151059    -1.9346297    -1.4133304
C           3.9999108     0.3827228    -1.2051846
H           4.2410739     1.3986125    -0.9059985
H           3.5399990     0.2845985    -2.1842486
C           3.5307695    -0.5242698    -0.0914623
F           3.4451906     0.0322265     1.1606766
C           4.8832782    -0.7301283    -0.6914710
H           5.0200601    -1.6179118    -1.3005501
H           5.7289293    -0.4529951    -0.0694369
15
168_C5H7FO2_0-1-10-12 (-150,) energy =    -444.9919513
O           1.2413360    -0.9081825    -0.2016811
C           2.4288037    -1.5222276    -0.3536156
O           2.5622442    -2.6716217    -0.7124373
C           0.0870944    -1.7421455    -0.4051521
H           0.0954386    -2.5850940     0.2907114
H          -0.7730846    -1.0988975    -0.2195190
H           0.0692785    -2.1255180    -1.4287990
C           3.9486727     0.4233679    -1.1523420
H           4.2122598     1.4174754    -0.8028547
H           3.4251388     0.3949677    -2.1038111
C           3.5629137    -0.5602293    -0.0838636
F           3.5565250    -0.0978211     1.2124328
C           4.8732024    -0.7190650    -0.7769370
H           4.9780190    -1.5615848    -1.4535266
H           5.7593389    -0.4763404    -0.1983607
15
168_C5H7FO2_0-1-10-12 (-135,) energy =    -444.9902368
O           1.2303125    -0.9152963    -0.3390697
C           2.4027055    -1.5713568    -0.2536233
O           2.5193733    -2.7730104    -0.3417416
C           0.0677342    -1.7515424    -0.4803088
H          -0.0230572    -2.4262009     0.3749019
H          -0.7798027    -1.0674832    -0.5230761
H           0.1331856    -2.3445152    -1.3963178
C           3.8836786     0.4493637    -1.0366694
H           4.1893703     1.4121205    -0.6375386
H           3.3029314     0.4971200    -1.9533742
C           3.5475475    -0.6039340    -0.0305837
F           3.6337175    -0.2542933     1.3006037
C           4.8146122    -0.7323507    -0.8030086
H           4.8754635    -1.5189147    -1.5493724
H           5.7351458    -0.5431387    -0.2589893
15
168_C5H7FO2_0-1-10-12 (-120,) energy =    -444.9898057
O           1.2780779    -0.9271497    -0.4707874
C           2.4254232    -1.5737860    -0.1883224
O           2.5104512    -2.7698111    -0.0261274
C           0.1097364    -1.7634545    -0.5569280
H          -0.0701597    -2.2637813     0.3980298
H          -0.7127481    -1.0911794    -0.8011953
H           0.2370104    -2.5193129    -1.3362776
C           3.8555322     0.4929662    -1.0193123
H           4.2207169     1.4247200    -0.5976679
H           3.1911112     0.6039665    -1.8710570
C           3.5886482    -0.6117900    -0.0543798
F           3.8298355    -0.3575215     1.2802592
C           4.7779937    -0.7185500    -0.9484918
H           4.7582349    -1.4506808    -1.7506675
H           5.7457154    -0.5835561    -0.4746084
15
168_C5H7FO2_0-1-10-12 (-105,) energy =    -444.9905656
O           1.3227636    -0.9339902    -0.5626478
C           2.4296015    -1.5372060    -0.0851255
O           2.4703667    -2.6845110     0.2957963
C           0.1522850    -1.7692687    -0.6268290
H          -0.1213089    -2.1153073     0.3730629
H          -0.6327281    -1.1396310    -1.0457343
H           0.3351311    -2.6371414    -1.2659021
C           3.8309474     0.5436740    -0.9686543
H           4.2604785     1.4435978    -0.5388807
H           3.0976653     0.7104184    -1.7513523
C           3.6113625    -0.5943760    -0.0314039
F           3.9983226    -0.4121075     1.2788115
C           4.7157663    -0.6943017    -1.0364221
H           4.6034648    -1.3811017    -1.8706374
H           5.7230359    -0.6160967    -0.6382708
15
168_C5H7FO2_0-1-10-12 (-90,) energy =    -444.9922837
O           1.3780373    -0.9703327    -0.6389168
C           2.4254751    -1.5149313     0.0145403
O           2.4007930    -2.5906190     0.5660406
C           0.2016960    -1.7971469    -0.7003666
H          -0.1694736    -2.0029843     0.3066542
H          -0.5287258    -1.2234829    -1.2710504
H           0.4237188    -2.7447917    -1.1981918
C           3.8249409     0.5626843    -0.8946841
H           4.3316575     1.4179871    -0.4580630
H           3.0346457     0.8004443    -1.5989576
C           3.6312369    -0.6091267     0.0079167
F           4.1538434    -0.5107317     1.2766275
C           4.6393242    -0.7044805    -1.1021907
H           4.4206154    -1.3377923    -1.9572034
H           5.6785499    -0.6952473    -0.7876383
15
168_C5H7FO2_0-1-10-12 (-75,) energy =    -444.9945428
O           1.4496291    -1.0151176    -0.7055699
C           2.4314883    -1.4776239     0.0990220
O           2.3365742    -2.4597222     0.7973578
C           0.2624058    -1.8268833    -0.7460095
H          -0.1952499    -1.8787066     0.2450144
H          -0.4046579    -1.3332754    -1.4529758
H           0.5001789    -2.8397874    -1.0814871
C           3.8213229     0.5898095    -0.8406216
H           4.3973021     1.4036648    -0.4107674
H           2.9817609     0.8869120    -1.4596622
C           3.6600747    -0.6145745     0.0306598
F           4.3006234    -0.5905926     1.2443953
C           4.5605123    -0.6908866    -1.1759026
H           4.2351379    -1.2752944    -2.0315675
H           5.6230019    -0.7381364    -0.9573825
15
168_C5H7FO2_0-1-10-12 (-60,) energy =    -444.9966485
O           1.5114725    -1.0829427    -0.7937352
C           2.4062650    -1.4490004     0.1527414
O           2.2179902    -2.3176879     0.9716137
C           0.2976259    -1.8542450    -0.8141379
H          -0.2328814    -1.7535478     0.1359810
H          -0.2953145    -1.4434131    -1.6315405
H           0.5165794    -2.9108774    -0.9891842
C           3.8127531     0.6005590    -0.7722480
H           4.4430551     1.3708262    -0.3382332
H           2.9453101     0.9549481    -1.3182051
C           3.6658731    -0.6425519     0.0526959
F           4.3766555    -0.6936272     1.2225293
C           4.4829708    -0.6805142    -1.2166190
H           4.0780499    -1.2118567    -2.0723870
H           5.5555573    -0.7703860    -1.0738926
15
168_C5H7FO2_0-1-10-12 (-45,) energy =    -444.9979037
O           1.5863314    -1.1867073    -0.8749464
C           2.4113235    -1.4299103     0.1710899
O           2.1435774    -2.1600904     1.0959888
C           0.3334374    -1.8914783    -0.8384478
H          -0.2351655    -1.6134727     0.0525737
H          -0.1966190    -1.5908035    -1.7424357
H           0.5011770    -2.9715929    -0.8308547
C           3.8122832     0.6102529    -0.7378114
H           4.4764128     1.3491061    -0.2995602
H           2.9164895     1.0016559    -1.2077972
C           3.6991839    -0.6803156     0.0269040
F           4.4727835    -0.7995413     1.1489739
C           4.4341688    -0.6490894    -1.2909567
H           3.9692970    -1.1309211    -2.1448830
H           5.5124618    -0.7550325    -1.2197080
15
168_C5H7FO2_0-1-10-12 (-30,) energy =    -444.9980201
O           1.6524402    -1.3087554    -0.9345267
C           2.4026043    -1.4126553     0.1882352
O           2.0504710    -1.9825281     1.1940455
C           0.3546053    -1.9231278    -0.8584080
H          -0.2394276    -1.4662988    -0.0626205
H          -0.1072225    -1.7500884    -1.8306983
H           0.4496157    -2.9939643    -0.6614803
C           3.8167527     0.6155064    -0.6668701
H           4.5018704     1.3211089    -0.2065852
H           2.9078787     1.0419517    -1.0782457
C           3.7220199    -0.7254752     0.0195900
F           4.5263772    -0.9114503     1.1097780
C           4.4054084    -0.6109959    -1.3174362
H           3.9062103    -1.0376712    -2.1807634
H           5.4852486    -0.7228567    -1.2941409
15
168_C5H7FO2_0-1-10-12 (-15,) energy =    -444.9969836
O           1.8531729    -1.7282859    -0.3245189
C           1.8884926    -0.4027782    -0.5964514
O           0.9206173     0.2601146    -0.8876600
C           0.5597330    -2.3422280    -0.4603574
H           0.1814547    -2.2206220    -1.4787147
H           0.7118107    -3.3967832    -0.2294473
H          -0.1500087    -1.8927633     0.2386764
C           4.3722689    -0.4918399    -1.3444651
H           5.0497833     0.2094864    -1.8222531
H           4.1222011    -1.3724349    -1.9278843
C           3.2830471     0.1358028    -0.5007528
F           3.2912852     1.5004645    -0.4141178
C           4.4152506    -0.6018678     0.1573799
H           4.1964956    -1.5568918     0.6222693
H           5.1273090     0.0253151     0.6856041
15
168_C5H7FO2_0-1-10-12 (0,) energy =    -444.9949819
O           1.8132294    -1.7063761    -0.2038702
C           1.9021524    -0.4321553    -0.6466063
O           0.9811092     0.1908058    -1.1213152
C           0.5341406    -2.3327382    -0.4065262
H           0.2748343    -2.3438836    -1.4684642
H           0.6432257    -3.3484814    -0.0259121
H          -0.2425554    -1.7957071     0.1435741
C           4.3819136    -0.4165982    -1.3742164
H           5.0420409     0.3341199    -1.7984114
H           4.1493302    -1.2524833    -2.0273449
C           3.2876716     0.1197222    -0.4750333
F           3.2685384     1.4755440    -0.2895427
C           4.4354196    -0.6451498     0.1147047
H           4.2374170    -1.6377857     0.5039638
H           5.1424651    -0.0518909     0.6870518
15
168_C5H7FO2_0-1-10-12 (15,) energy =    -444.9925760
O           1.7612435    -1.6851571    -0.1042892
C           1.9299553    -0.4922867    -0.7128709
O           1.0771776     0.0681740    -1.3617628
C           0.4869064    -2.3120832    -0.3366791
H           0.3265736    -2.4728330    -1.4060344
H           0.5283791    -3.2630484     0.1946082
H          -0.3194571    -1.6861240     0.0534886
C           4.4223607    -0.3206512    -1.3929809
H           5.0663317     0.4886443    -1.7244272
H           4.2330469    -1.0912290    -2.1349559
C           3.3013935     0.0818223    -0.4666081
F           3.2263143     1.4135980    -0.1464532
C           4.4599717    -0.6982895     0.0703201
H           4.2897808    -1.7311428     0.3550155
H           5.1425636    -0.1476372     0.7108528
15
168_C5H7FO2_0-1-10-12 (30,) energy =    -444.9906699
O           1.6951305    -1.6673240    -0.0130373
C           1.9476980    -0.5809837    -0.7704392
O           1.1748395    -0.1207981    -1.5792475
C           0.4232684    -2.2966192    -0.2540591
H           0.3445027    -2.6153486    -1.2967724
H           0.3912990    -3.1557983     0.4160049
H          -0.3909137    -1.6022019    -0.0321002
C           4.4472522    -0.2035257    -1.3910167
H           5.0629536     0.6648747    -1.6063505
H           4.3129984    -0.8877773    -2.2241187
C           3.2957722     0.0300056    -0.4581877
F           3.1396285     1.3109384     0.0192129
C           4.4737330    -0.7500086     0.0249508
H           4.3493136    -1.8164001     0.1840555
H           5.1184872    -0.2498924     0.7415931
15
168_C5H7FO2_0-1-10-12 (45,) energy =    -444.9898193
O           1.6251230    -1.6223794     0.0484129
C           1.9670105    -0.6720256    -0.8429537
O           1.2913152    -0.3588271    -1.7965661
C           0.3580585    -2.2608626    -0.1939223
H           0.3542702    -2.7433983    -1.1747623
H           0.2468030    -2.9989860     0.6003720
H          -0.4505135    -1.5264487    -0.1555760
C           4.4516677    -0.0830219    -1.4020880
H           5.0295455     0.8297834    -1.5125263
H           4.3628565    -0.6812091    -2.3044336
C           3.2816904    -0.0121688    -0.4783285
F           3.0413834     1.1977596     0.1388240
C           4.4875308    -0.7756528    -0.0456134
H           4.4221315    -1.8586291    -0.0010279
H           5.0941728    -0.3203975     0.7316373
15
168_C5H7FO2_0-1-10-12 (60,) energy =    -444.9901511
O           1.5860786    -1.5397716     0.1160781
C           2.0276301    -0.7462117    -0.8776594
O           1.4646376    -0.6051677    -1.9398642
C           0.3278881    -2.1925458    -0.1328497
H           0.4022444    -2.8433384    -1.0080431
H           0.1192380    -2.7750224     0.7645221
H          -0.4581282    -1.4527696    -0.3049396
C           4.4769118     0.0163361    -1.4068649
H           5.0203478     0.9559367    -1.4339507
H           4.3995240    -0.4987410    -2.3598353
C           3.3132437    -0.0490740    -0.4820500
F           3.0296883     1.0775773     0.2644974
C           4.5502193    -0.8018747    -0.1209598
H           4.5355725    -1.8863382    -0.1811583
H           5.1365247    -0.3955161     0.6978702
15
168_C5H7FO2_0-1-10-12 (75,) energy =    -444.9915968
O           1.5154183    -1.4488969     0.1696272
C           2.0670968    -0.8201171    -0.8840705
O           1.6325581    -0.8688656    -2.0135096
C           0.2837182    -2.1403496    -0.1028797
H           0.4439369    -2.9270452    -0.8448640
H          -0.0274957    -2.5671914     0.8505602
H          -0.4709440    -1.4445306    -0.4786090
C           4.4662395     0.0989140    -1.3966935
H           4.9782681     1.0550289    -1.3501720
H           4.3815462    -0.3349148    -2.3883755
C           3.3211687    -0.0860551    -0.4668437
F           3.0220707     0.9501037     0.3945331
C           4.5915964    -0.8279937    -0.1919566
H           4.6178663    -1.9021124    -0.3521725
H           5.1696787    -0.4737859     0.6563680
15
168_C5H7FO2_0-1-10-12 (90,) energy =    -444.9939118
O           1.4265382    -1.3430305     0.2066298
C           2.0966834    -0.8821805    -0.8639276
O           1.8002593    -1.1232102    -2.0144026
C           0.2370347    -2.0947796    -0.0904656
H           0.4844910    -2.9879263    -0.6702808
H          -0.1833219    -2.3676968     0.8774873
H          -0.4699538    -1.4852979    -0.6593228
C           4.4332476     0.1706246    -1.3828004
H           4.9191348     1.1354759    -1.2765900
H           4.3223484    -0.1900592    -2.4005079
C           3.3200239    -0.1131921    -0.4370458
F           3.0321989     0.8384059     0.5164064
C           4.6225998    -0.8416867    -0.2622182
H           4.6704830    -1.8980459    -0.5103213
H           5.2123726    -0.5386738     0.5977120
15
168_C5H7FO2_0-1-10-12 (105,) energy =    -444.9964884
O           1.3446302    -1.2479255     0.2181214
C           2.1346909    -0.9484601    -0.8264152
O           1.9624148    -1.3522560    -1.9576509
C           0.1931204    -2.0500643    -0.0962688
H           0.5004551    -3.0163125    -0.5049387
H          -0.3352415    -2.1810744     0.8480526
H          -0.4418025    -1.5405180    -0.8256691
C           4.3961584     0.2278901    -1.3678707
H           4.8542940     1.2004214    -1.2176102
H           4.2486491    -0.0732825    -2.3999220
C           3.3293142    -0.1478381    -0.3951064
F           3.0592013     0.7320259     0.6259218
C           4.6647369    -0.8447980    -0.3292048
H           4.7252865    -1.8803143    -0.6503652
H           5.2821108    -0.5811000     0.5241933
15
168_C5H7FO2_0-1-10-12 (120,) energy =    -444.9985797
O           1.2740911    -1.1796833     0.2089428
C           2.1736176    -1.0305877    -0.7764115
O           2.0997802    -1.5629183    -1.8654234
C           0.1423939    -2.0050862    -0.1177399
H           0.4672313    -3.0203016    -0.3603552
H          -0.4839496    -2.0034375     0.7743070
H          -0.4004268    -1.5911860    -0.9713575
C           4.3431282     0.2731788    -1.3518995
H           4.7638905     1.2572160    -1.1701605
H           4.1520221     0.0185122    -2.3891787
C           3.3426475    -0.2002137    -0.3438587
F           3.0895415     0.6170834     0.7291487
C           4.7110302    -0.8364570    -0.3922180
H           4.7882352    -1.8500706    -0.7729658
H           5.3644386    -0.5915656     0.4396201
15
168_C5H7FO2_0-1-10-12 (135,) energy =    -444.9997796
O           1.2430351    -1.1299034     0.1897292
C           2.2348244    -1.1268746    -0.7143002
O           2.2337025    -1.7691356    -1.7455710
C           0.1148083    -1.9563024    -0.1468315
H           0.4213208    -3.0010743    -0.2436124
H          -0.5881476    -1.8353986     0.6773378
H          -0.3330830    -1.6277929    -1.0881924
C           4.2952796     0.3022537    -1.3412939
H           4.6704294     1.3014395    -1.1424062
H           4.0545452     0.0780536    -2.3753050
C           3.3829361    -0.2665185    -0.2908199
F           3.1486941     0.5007238     0.8206509
C           4.7778911    -0.8188317    -0.4546792
H           4.8753158    -1.8123885    -0.8803890
H           5.4712253    -0.5715604     0.3434215
15
168_C5H7FO2_0-1-10-12 (150,) energy =    -444.9999745
O           1.2160700    -1.0820953     0.1666666
C           2.2829785    -1.2206893    -0.6354170
O           2.3354565    -1.9631419    -1.5957022
C           0.0851073    -1.9016682    -0.1775081
H           0.3527670    -2.9605813    -0.1346669
H          -0.6784050    -1.6668631     0.5640581
H          -0.2674732    -1.6637894    -1.1844166
C           4.2248562     0.3277296    -1.3174517
H           4.5525959     1.3402084    -1.1020790
H           3.9328221     0.1283669    -2.3434361
C           3.4168946    -0.3344410    -0.2286546
F           3.2068754     0.3862484     0.9175833
C           4.8241753    -0.7924774    -0.5078350
H           4.9426306    -1.7644124    -0.9756107
H           5.5572164    -0.5330605     0.2498990
15
168_C5H7FO2_0-1-10-12 (165,) energy =    -444.9991420
O           1.2106330    -1.0377401     0.1176867
C           2.3357411    -1.3114732    -0.5615944
O           2.4290858    -2.1500745    -1.4352759
C           0.0746592    -1.8477972    -0.2318866
H           0.2873491    -2.9045332    -0.0508232
H          -0.7354089    -1.5026222     0.4105321
H          -0.1824095    -1.7115475    -1.2855864
C           4.1525684     0.3483139    -1.2911653
H           4.4353542     1.3700869    -1.0562675
H           3.8079465     0.1729966    -2.3053660
C           3.4597299    -0.4020970    -0.1747277
F           3.2781479     0.2719202     1.0042825
C           4.8640778    -0.7633339    -0.5655804
H           5.0018080    -1.7114420    -1.0749470
H           5.6341443    -0.4878494     0.1484903
15
168_C5H7FO2_0-1-10-12 (180,) energy =    -444.9972889
O           1.2118023    -0.9943449     0.0529886
C           2.3756157    -1.3986548    -0.4829116
O           2.4947856    -2.3389233    -1.2412366
C           0.0708233    -1.8030600    -0.2821817
H           0.2200380    -2.8336791     0.0499664
H          -0.7702589    -1.3484352     0.2412645
H          -0.0973435    -1.7977472    -1.3623632
C           4.0708298     0.3605623    -1.2557674
H           4.3213263     1.3847886    -0.9956892
H           3.6691625     0.2146555    -2.2538580
C           3.4974058    -0.4695892    -0.1262993
F           3.3569335     0.1543580     1.0863267
C           4.8818593    -0.7437578    -0.6268805
H           5.0277672    -1.6651498    -1.1811281
H           5.6900064    -0.4575247     0.0392901
