20
450_C8H8N4_4-5-16-17 (-165,) energy =    -528.6503095
C           5.8431221     0.9528829    -0.3754410
H           6.6954779     1.6182766    -0.4546472
C           5.9342964    -0.2968081     0.2291210
H           6.8719536    -0.6561689     0.6499073
N           4.8932174    -1.1293381     0.3225734
C           3.7388711    -0.6848327    -0.1874151
N           3.5231726     0.4963084    -0.7759874
C           4.5843528     1.2976226    -0.8692119
H           4.4137483     2.2582338    -1.3530410
C           1.2330612    -3.1830404     0.3821561
H           0.7709596    -4.0628211     0.8076101
C           2.4895038    -2.7055206     0.6761798
C           3.4868692    -3.2631296     1.6424390
H           3.0260262    -4.1042855     2.1693546
H           3.8023171    -2.5205235     2.3819291
H           4.3938075    -3.6121905     1.1415353
N           2.6370458    -1.5585144    -0.0961192
N           1.5280043    -1.3030104    -0.8604881
C           0.6932572    -2.2825325    -0.5695918
H          -0.2735051    -2.3160109    -1.0562630
20
450_C8H8N4_4-5-16-17 (-150,) energy =    -528.6498322
C           5.8440775     0.9250449    -0.3901945
H           6.6984219     1.5870277    -0.4773602
C           5.9721578    -0.3932290     0.0367619
H           6.9415384    -0.8115197     0.3023391
N           4.9289538    -1.2241206     0.1294579
C           3.7374686    -0.7024970    -0.1834515
N           3.4846371     0.5474652    -0.5837108
C           4.5485508     1.3441747    -0.6945387
H           4.3498082     2.3610699    -1.0293895
C           1.2398956    -3.2106432     0.3592553
H           0.7703677    -4.0818733     0.7940401
C           2.4699959    -2.6945361     0.6997005
C           3.4375585    -3.1730799     1.7358126
H           2.9651051    -3.9691739     2.3188076
H           3.7301016    -2.3722038     2.4234412
H           4.3572502    -3.5587839     1.2877163
N           2.6322162    -1.5737448    -0.0997845
N           1.5663187    -1.3697710    -0.9356232
C           0.7364467    -2.3582952    -0.6547571
H          -0.1989575    -2.4335690    -1.1949338
20
450_C8H8N4_4-5-16-17 (-135,) energy =    -528.6484535
C           5.8495301     0.8821218    -0.3996372
H           6.7072265     1.5373697    -0.5043745
C           5.9884611    -0.4783412    -0.1404970
H           6.9694336    -0.9372811    -0.0309120
N           4.9387345    -1.3003911    -0.0340181
C           3.7366853    -0.7269046    -0.1510055
N           3.4745868     0.5635401    -0.3761316
C           4.5415727     1.3537264    -0.5125283
H           4.3361152     2.4050463    -0.7071605
C           1.2570301    -3.2594155     0.3433193
H           0.7861445    -4.1318220     0.7741921
C           2.4504648    -2.6956760     0.7392652
C           3.3869796    -3.1010308     1.8332935
H           2.9302751    -3.9040582     2.4185989
H           3.6035118    -2.2681741     2.5124974
H           4.3440151    -3.4518716     1.4367237
N           2.6198114    -1.5879856    -0.0676452
N           1.6077563    -1.4404711    -0.9780757
C           0.7908300    -2.4482561    -0.7203721
H          -0.1070408    -2.5663580    -1.3138683
20
450_C8H8N4_4-5-16-17 (-120,) energy =    -528.6462275
C           5.8667408     0.8672956    -0.4302853
H           6.7276366     1.5162969    -0.5480436
C           5.9942691    -0.5164522    -0.3444970
H           6.9682352    -1.0001027    -0.3917166
N           4.9374987    -1.3283146    -0.2243785
C           3.7476290    -0.7249249    -0.1478884
N           3.4993915     0.5857035    -0.1986453
C           4.5688838     1.3711461    -0.3532245
H           4.3742772     2.4408946    -0.4064486
C           1.2767047    -3.2683296     0.3208283
H           0.8028456    -4.1381306     0.7536295
C           2.4307844    -2.6575597     0.7643654
C           3.3319614    -2.9896611     1.9110574
H           2.9189811    -3.8354895     2.4672150
H           3.4320914    -2.1469785     2.6062555
H           4.3368867    -3.2538061     1.5668434
N           2.6153464    -1.5729904    -0.0632969
N           1.6647592    -1.4886504    -1.0439253
C           0.8566069    -2.5083760    -0.7976709
H          -0.0017537    -2.6698182    -1.4375814
20
450_C8H8N4_4-5-16-17 (-105,) energy =    -528.6436202
C           5.8705017     0.8374773    -0.4230604
H           6.7301111     1.4890191    -0.5372205
C           5.9762935    -0.5460754    -0.5430064
H           6.9300869    -1.0260824    -0.7539790
N           4.9190705    -1.3580461    -0.4257804
C           3.7568550    -0.7601296    -0.1523026
N           3.5327071     0.5453399     0.0035363
C           4.6000148     1.3375792    -0.1439850
H           4.4253255     2.4055428    -0.0268693
C           1.2786220    -3.2961963     0.3266289
H           0.7917703    -4.1474075     0.7813492
C           2.3992819    -2.6416318     0.7976575
C           3.2586305    -2.8911161     1.9960233
H           2.8737433    -3.7486585     2.5540505
H           3.2733717    -2.0283673     2.6737097
H           4.2938694    -3.1054441     1.7077432
N           2.6158668    -1.6063801    -0.0772545
N           1.7279091    -1.5928893    -1.1152020
C           0.9147435    -2.6080043    -0.8544580
H           0.0936079    -2.8148918    -1.5291538
20
450_C8H8N4_4-5-16-17 (-90,) energy =    -528.6420759
C           5.8718319     0.8456655    -0.3922222
H           6.7035842     1.5394553    -0.4512258
C           5.9780899    -0.4682321    -0.8423815
H           6.9053717    -0.8497318    -1.2657056
N           4.9571833    -1.3316236    -0.7802042
C           3.8246457    -0.8531648    -0.2629763
N           3.6077922     0.3707316     0.2211520
C           4.6428815     1.2162311     0.1488325
H           4.4741148     2.2180185     0.5393998
C           1.2405843    -3.2616139     0.3601367
H           0.6852375    -4.0156254     0.8999107
C           2.3815804    -2.6122917     0.7936282
C           3.1738402    -2.7279264     2.0569708
H           2.6988681    -3.4484824     2.7277306
H           3.2385721    -1.7680791     2.5837608
H           4.1977324    -3.0708067     1.8633024
N           2.7206220    -1.7544889    -0.2185070
N           1.8670951    -1.8106832    -1.2780474
C           0.9733257    -2.7266714    -0.9198605
H           0.1646922    -2.9700762    -1.5972818
20
450_C8H8N4_4-5-16-17 (-75,) energy =    -528.6436124
C           5.8618933     0.8305677    -0.3704809
H           6.6612607     1.5630751    -0.4008154
C           5.9243767    -0.3583688    -1.0948985
H           6.7872976    -0.5989365    -1.7131903
N           4.9501959    -1.2739829    -1.0582196
C           3.8890522    -0.9592228    -0.3134813
N           3.7238228     0.1281696     0.4436609
C           4.7237945     1.0171264     0.4100848
H           4.5985003     1.9048332     1.0272472
C           1.2079367    -3.2234848     0.3864878
H           0.5768217    -3.8775666     0.9715136
C           2.3600193    -2.5946982     0.8149685
C           3.0517982    -2.5993152     2.1408700
H           2.5183456    -3.2564007     2.8326877
H           3.0864513    -1.5949847     2.5777057
H           4.0837785    -2.9627624     2.0602068
N           2.8371543    -1.9160981    -0.2791866
N           2.0243132    -2.0303793    -1.3709565
C           1.0505642    -2.8339762    -0.9642099
H           0.2633761    -3.1047801    -1.6564802
20
450_C8H8N4_4-5-16-17 (-60,) energy =    -528.6462000
C           5.8714335     0.8014546    -0.3648159
H           6.6703288     1.5341869    -0.3974682
C           5.8330306    -0.2869730    -1.2356526
H           6.6138529    -0.4443593    -1.9776963
N           4.8639015    -1.2056746    -1.1971333
C           3.8990629    -0.9902511    -0.2996877
N           3.8339381    -0.0033735     0.5986866
C           4.8351666     0.8836550     0.5612138
H           4.7924004     1.6866267     1.2948034
C           1.2087770    -3.2466798     0.3833889
H           0.5563834    -3.8815034     0.9663217
C           2.3227210    -2.5755626     0.8428802
C           2.9294478    -2.5169872     2.2088108
H           2.4029230    -3.2088873     2.8717582
H           2.8668404    -1.5096250     2.6325009
H           3.9881445    -2.8030792     2.1959666
N           2.8545275    -1.9470333    -0.2605616
N           2.1084822    -2.1422665    -1.3907663
C           1.1250618    -2.9362266    -0.9953619
H           0.3811084    -3.2560453    -1.7140835
20
450_C8H8N4_4-5-16-17 (-45,) energy =    -528.6484499
C           5.8961484     0.7873110    -0.3859507
H           6.6994566     1.5146581    -0.4259905
C           5.7397005    -0.1953660    -1.3637890
H           6.4292801    -0.2706673    -2.2029649
N           4.7658616    -1.1070233    -1.3216888
C           3.9120632    -0.9932804    -0.3001711
N           3.9626762    -0.1099629     0.7019534
C           4.9696250     0.7692261     0.6524297
H           5.0205683     1.4854491     1.4705853
C           1.2294348    -3.2646578     0.3724408
H           0.5677320    -3.8921938     0.9528064
C           2.2977848    -2.5398875     0.8543241
C           2.8289360    -2.4289624     2.2485636
H           2.3044203    -3.1425379     2.8902858
H           2.6941256    -1.4222227     2.6541210
H           3.9004068    -2.6557189     2.2949029
N           2.8623578    -1.9372304    -0.2528519
N           2.1822299    -2.2175328    -1.4079904
C           1.2047997    -3.0207356    -1.0227769
H           0.5055376    -3.3950135    -1.7598752
20
450_C8H8N4_4-5-16-17 (-30,) energy =    -528.6498321
C           5.9183361     0.7695340    -0.3971285
H           6.7280774     1.4894056    -0.4397654
C           5.6376159    -0.0926993    -1.4576061
H           6.2318983    -0.0753293    -2.3698782
N           4.6540859    -0.9926489    -1.4184359
C           3.9193841    -0.9980084    -0.3016482
N           4.0905879    -0.2302801     0.7802757
C           5.1023836     0.6417033     0.7228103
H           5.2497731     1.2616334     1.6055088
C           1.2515244    -3.2915297     0.3657732
H           0.5846774    -3.9140658     0.9456726
C           2.2727084    -2.5126085     0.8616087
C           2.7237338    -2.3432236     2.2781707
H           2.1848281    -3.0576719     2.9074946
H           2.5357066    -1.3316794     2.6480361
H           3.7973220    -2.5287034     2.3908598
N           2.8592093    -1.9257315    -0.2490902
N           2.2430965    -2.2884856    -1.4176933
C           1.2786912    -3.1076837    -1.0391161
H           0.6256008    -3.5384620    -1.7876850
20
450_C8H8N4_4-5-16-17 (-15,) energy =    -528.6503089
C           5.9404380     0.7575653    -0.4079516
H           6.7523112     1.4748712    -0.4512468
C           5.5273223     0.0356760    -1.5283957
H           6.0143928     0.1679148    -2.4934066
N           4.5357291    -0.8545099    -1.4939039
C           3.9355647    -1.0077991    -0.3088395
N           4.2385203    -0.3784962     0.8323635
C           5.2478293     0.4950506     0.7696983
H           5.4978181     1.0027878     1.6998063
C           1.2729396    -3.3113314     0.3612069
H           0.5936270    -3.9192029     0.9422345
C           2.2537516    -2.4871724     0.8631054
C           2.6189859    -2.2518094     2.2950726
H           2.0185464    -2.9199305     2.9200860
H           2.4352068    -1.2186184     2.6017416
H           3.6773197    -2.4532421     2.4878155
N           2.8721413    -1.9305468    -0.2511975
N           2.3162108    -2.3696205    -1.4249516
C           1.3577430    -3.1945231    -1.0484994
H           0.7508460    -3.6798939    -1.8026126
20
450_C8H8N4_4-5-16-17 (0,) energy =    -528.6503365
C           5.9553668     0.7478154    -0.4066176
H           6.7662728     1.4662544    -0.4484076
C           5.3989327     0.1878830    -1.5573209
H           5.7652562     0.4570490    -2.5469979
N           4.4019676    -0.6959250    -1.5269198
C           3.9543603    -1.0243211    -0.3102929
N           4.4032169    -0.5592593     0.8612978
C           5.4027327     0.3250822     0.7979355
H           5.7665413     0.7026311     1.7521804
C           1.2984611    -3.3384251     0.3583658
H           0.5990758    -3.9241094     0.9383798
C           2.2421772    -2.4736888     0.8621473
C           2.5148111    -2.1502373     2.2976030
H           1.8241553    -2.7298773     2.9179358
H           2.3754844    -1.0873014     2.5143737
H           3.5401436    -2.3964924     2.5876775
N           2.9002765    -1.9577432    -0.2514092
N           2.4039675    -2.4657462    -1.4246590
C           1.4462881    -3.2914603    -1.0501108
H           0.8874158    -3.8306694    -1.8048227
20
450_C8H8N4_4-5-16-17 (15,) energy =    -528.6503089
C           5.8203414     0.9472645    -0.1245420
H           6.6795121     1.5904353    -0.2784818
C           4.6597063     1.3974276     0.5059049
H           4.5788558     2.4201454     0.8712575
N           3.5957743     0.6206338     0.7096640
C           3.6966800    -0.6319066     0.2524624
N           4.7501950    -1.1794261    -0.3643659
C           5.8072931    -0.3807809    -0.5387948
H           6.6665098    -0.8282691    -1.0356786
C           1.1726433    -3.1528309     0.5973923
H           0.7363746    -4.1418213     0.6089710
C           2.4859629    -2.8500188     0.3205728
C           3.6019788    -3.7918881    -0.0060965
H           3.2288573    -4.8164855     0.0862924
H           4.4539830    -3.6699151     0.6699263
H           3.9821580    -3.6428298    -1.0202710
N           2.5776859    -1.4675528     0.4400869
N           1.3774133    -0.8963048     0.7755936
C           0.5411749    -1.9128938     0.8655559
H          -0.4951342    -1.7249565     1.1172274
20
450_C8H8N4_4-5-16-17 (30,) energy =    -528.6498321
C           5.8130460     0.9360206    -0.1484012
H           6.6718056     1.5790590    -0.3057146
C           4.7373993     1.3201434     0.6530331
H           4.7271319     2.2854019     1.1569023
N           3.6787548     0.5379366     0.8679728
C           3.6913171    -0.6390743     0.2343185
N           4.6600308    -1.1217563    -0.5517404
C           5.7212338    -0.3272132    -0.7247631
H           6.5153016    -0.7212065    -1.3567594
C           1.1653503    -3.1551681     0.5688798
H           0.7330268    -4.1454668     0.5992831
C           2.4909784    -2.8536005     0.3517279
C           3.6424005    -3.7824628     0.1276628
H           3.3030666    -4.8098948     0.2893426
H           4.4699170    -3.5822227     0.8167298
H           4.0447886    -3.6965363    -0.8852917
N           2.5704385    -1.4716478     0.4288841
N           1.3528978    -0.8913529     0.6690332
C           0.5151612    -1.9091981     0.7507170
H          -0.5349673    -1.7174185     0.9321086
20
450_C8H8N4_4-5-16-17 (45,) energy =    -528.6484499
C           5.8079047     0.9270649    -0.1771537
H           6.6656491     1.5690860    -0.3445581
C           4.8297934     1.2326476     0.7695333
H           4.8992984     2.1295483     1.3828400
N           3.7761018     0.4461604     0.9984968
C           3.6880657    -0.6407232     0.2262657
N           4.5618871    -1.0480922    -0.6997750
C           5.6260143    -0.2585269    -0.8830546
H           6.3451622    -0.5899594    -1.6300006
C           1.1611157    -3.1562831     0.5337343
H           0.7312766    -4.1474129     0.5708343
C           2.4970696    -2.8511119     0.3889136
C           3.6785145    -3.7598850     0.2598815
H           3.3571536    -4.7920610     0.4255740
H           4.4551678    -3.5244886     0.9967761
H           4.1392259    -3.6867804    -0.7293487
N           2.5668815    -1.4726315     0.4408258
N           1.3356009    -0.8886989     0.5766896
C           0.4968372    -1.9093568     0.6369135
H          -0.5633216    -1.7177354     0.7451262
20
450_C8H8N4_4-5-16-17 (60,) energy =    -528.6462000
C           5.8047468     0.9074243    -0.2065030
H           6.6648247     1.5442524    -0.3823225
C           4.9372398     1.1188873     0.8645807
H           5.0996778     1.9310431     1.5710507
N           3.8828600     0.3338175     1.1026075
C           3.6792855    -0.6443131     0.2168606
N           4.4452291    -0.9604106    -0.8313082
C           5.5139735    -0.1792128    -1.0267514
H           6.1464948    -0.4349814    -1.8748348
C           1.1571122    -3.1644204     0.5056680
H           0.7332909    -4.1576776     0.5530449
C           2.4979267    -2.8490428     0.4338622
C           3.7048680    -3.7316550     0.3938197
H           3.4006624    -4.7722028     0.5358503
H           4.4198049    -3.4788577     1.1861648
H           4.2313517    -3.6478533    -0.5622158
N           2.5533261    -1.4734626     0.4465228
N           1.3137514    -0.8948004     0.4723534
C           0.4789135    -1.9217630     0.5195411
H          -0.5872249    -1.7363715     0.5554623
20
450_C8H8N4_4-5-16-17 (75,) energy =    -528.6436124
C           5.8045739     0.9218530    -0.2341170
H           6.6661501     1.5568515    -0.4100111
C           5.0568425     1.0031573     0.9391452
H           5.3186610     1.7049893     1.7288751
N           3.9986652     0.2192096     1.1723974
C           3.6751814    -0.6225218     0.1892481
N           4.3246765    -0.8124510    -0.9618695
C           5.3951566    -0.0340167    -1.1604263
H           5.9323417    -0.1849291    -2.0949150
C           1.1662123    -3.1568035     0.4854739
H           0.7532610    -4.1529959     0.5593361
C           2.5055611    -2.8216737     0.4754113
C           3.7354087    -3.6700698     0.5409154
H           3.4531394    -4.7210604     0.6442967
H           4.3669931    -3.4057063     1.3981178
H           4.3432011    -3.5644307    -0.3646978
N           2.5409487    -1.4503342     0.4162136
N           1.2980204    -0.8901953     0.3318884
C           0.4732264    -1.9274016     0.3894993
H          -0.5954411    -1.7568039     0.3565398
20
450_C8H8N4_4-5-16-17 (90,) energy =    -528.6420759
C           5.8061983     0.9499710    -0.2364065
H           6.6643385     1.6024036    -0.3570909
C           5.1922733     0.7652004     1.0002082
H           5.5567656     1.2660673     1.8951240
N           4.1294702    -0.0325210     1.1603718
C           3.6887947    -0.6387785     0.0570403
N           4.2030796    -0.5612045    -1.1713011
C           5.2653090     0.2417558    -1.3070388
H           5.6900657     0.3130016    -2.3065930
C           1.1644049    -3.1409077     0.5398114
H           0.7515435    -4.1183957     0.7456314
C           2.5049609    -2.8045072     0.5060018
C           3.7411457    -3.6162939     0.7294507
H           3.4710175    -4.6581049     0.9201821
H           4.3144119    -3.2528142     1.5912380
H           4.4038627    -3.5938684    -0.1442245
N           2.5388995    -1.4681923     0.2088320
N           1.3016272    -0.9226157     0.0481751
C           0.4741251    -1.9425694     0.2508669
H          -0.5938091    -1.7793610     0.1807711
20
450_C8H8N4_4-5-16-17 (105,) energy =    -528.6436200
C           5.7861032     0.9711294    -0.2233268
H           6.6221369     1.6596447    -0.2821960
C           5.3203354     0.4835326     0.9953278
H           5.7820886     0.7749225     1.9368751
N           4.2762121    -0.3489895     1.0816983
C           3.7268032    -0.7115749    -0.0800716
N           4.0920309    -0.3301638    -1.3047685
C           5.1211890     0.5218902    -1.3627162
H           5.4213218     0.8455298    -2.3576792
C           1.1642892    -3.1155719     0.5958396
H           0.7259438    -4.0429183     0.9367775
C           2.5105603    -2.8147886     0.5384379
C           3.7178512    -3.6099984     0.9216926
H           3.4105681    -4.5892970     1.2978104
H           4.2955276    -3.1068681     1.7052158
H           4.3866717    -3.7728836     0.0673162
N           2.5835251    -1.5542285     0.0001249
N           1.3552654    -1.0070765    -0.2406754
C           0.5045372    -1.9633612     0.1078604
H          -0.5588740    -1.7903150     0.0006514
20
450_C8H8N4_4-5-16-17 (120,) energy =    -528.6462275
C           5.7898860     0.9892418    -0.2482447
H           6.6241553     1.6799982    -0.3035724
C           5.4486889     0.3403955     0.9353826
H           6.0105758     0.5027918     1.8533523
N           4.4064736    -0.4942901     1.0213444
C           3.7342811    -0.7025056    -0.1146665
N           3.9744550    -0.1576709    -1.3094077
C           4.9992378     0.6978804    -1.3592003
H           5.1953386     1.1550687    -2.3274922
C           1.1695013    -3.0989172     0.5732139
H           0.7233449    -4.0121830     0.9410438
C           2.5119805    -2.7836155     0.5756202
C           3.6956976    -3.5589981     1.0603074
H           3.3697605    -4.5415396     1.4119719
H           4.2027902    -3.0433137     1.8819266
H           4.4332015    -3.7148992     0.2633005
N           2.6021255    -1.5507774    -0.0304665
N           1.3801257    -1.0407116    -0.3752855
C           0.5240517    -1.9854639    -0.0172481
H          -0.5340962    -1.8335447    -0.1892257
20
450_C8H8N4_4-5-16-17 (135,) energy =    -528.6484535
C           5.7977793     0.9646754    -0.2763147
H           6.6385890     1.6464167    -0.3413559
C           5.5643566     0.1878708     0.8547925
H           6.2224596     0.2350355     1.7205972
N           4.5168833    -0.6377327     0.9558274
C           3.7234224    -0.7047236    -0.1181488
N           3.8544812    -0.0305575    -1.2639885
C           4.8885142     0.8113130    -1.3230366
H           4.9956808     1.3726003    -2.2497728
C           1.1691448    -3.1203452     0.5505061
H           0.7233088    -4.0321072     0.9225257
C           2.5007449    -2.7732691     0.6229064
C           3.6586751    -3.5259214     1.1982165
H           3.3290879    -4.5283246     1.4855749
H           4.0709355    -3.0228594     2.0775600
H           4.4745658    -3.6325844     0.4737875
N           2.5980222    -1.5524538    -0.0149858
N           1.3871845    -1.0931495    -0.4597455
C           0.5345403    -2.0449911    -0.1185622
H          -0.5147909    -1.9255544    -0.3573016
20
450_C8H8N4_4-5-16-17 (150,) energy =    -528.6498321
C           5.8135980     0.9743739    -0.3165065
H           6.6633697     1.6435411    -0.3928409
C           5.6743994     0.0750384     0.7362819
H           6.4194266     0.0084007     1.5272880
N           4.6216736    -0.7409420     0.8511377
C           3.7156632    -0.6667794    -0.1303284
N           3.7480393     0.1361247    -1.1984252
C           4.7953581     0.9588686    -1.2702531
H           4.8222737     1.6220672    -2.1334692
C           1.1813950    -3.1175465     0.4977737
H           0.7390776    -4.0315731     0.8685145
C           2.4956583    -2.7334135     0.6411986
C           3.6217100    -3.4606323     1.3059323
H           3.2809215    -4.4633175     1.5804230
H           3.9662619    -2.9437590     2.2056556
H           4.4895261    -3.5625453     0.6453697
N           2.5958568    -1.5152344    -0.0127568
N           1.4021122    -1.1106452    -0.5490760
C           0.5583241    -2.0773879    -0.2357281
H          -0.4772152    -1.9955722    -0.5413412
20
450_C8H8N4_4-5-16-17 (165,) energy =    -528.6503095
C           5.8303719     0.9743716    -0.3431442
H           6.6839455     1.6378634    -0.4251514
C           5.7796217    -0.0529938     0.5935971
H           6.6020261    -0.2317111     1.2843306
N           4.7283475    -0.8695578     0.7107687
C           3.7208216    -0.6551414    -0.1431186
N           3.6592173     0.2845777    -1.0924145
C           4.7152860     1.0939330    -1.1734610
H           4.6661895     1.8641426    -1.9417940
C           1.1978360    -3.1265544     0.4662919
H           0.7534376    -4.0341945     0.8500414
C           2.4946932    -2.7124222     0.6657338
C           3.5794949    -3.4072176     1.4271672
H           3.2030323    -4.3806263     1.7562719
H           3.8980220    -2.8354748     2.3029334
H           4.4725573    -3.5686148     0.8154668
N           2.6069038    -1.5098765    -0.0235847
N           1.4350791    -1.1558547    -0.6408299
C           0.5959717    -2.1285993    -0.3399172
H          -0.4212022    -2.0829873    -0.7085281
20
450_C8H8N4_4-5-16-17 (180,) energy =    -528.6503368
C           5.8476974     0.9642158    -0.3513304
H           6.7016408     1.6275929    -0.4298921
C           5.8738737    -0.1860253     0.4305760
H           6.7598631    -0.4660935     0.9980940
N           4.8277161    -1.0105194     0.5345445
C           3.7377531    -0.6682919    -0.1620978
N           3.5917572     0.4064751    -0.9443444
C           4.6520575     1.2094562    -1.0277560
H           4.5356065     2.0854834    -1.6642468
C           1.2218049    -3.1553094     0.4215761
H           0.7684740    -4.0497530     0.8253587
C           2.4992684    -2.7116194     0.6732404
C           3.5350504    -3.3485475     1.5455904
H           3.1092727    -4.2605936     1.9753316
H           3.8498890    -2.6893972     2.3595527
H           4.4389289    -3.6105100     0.9883077
N           2.6302711    -1.5333290    -0.0574139
N           1.4878303    -1.2278421    -0.7519425
C           0.6504080    -2.2036979    -0.4592567
H          -0.3427890    -2.1958538    -0.8907275
