19
398_C7H9NO2_0-4-13-8 (-165,) energy =    -477.3558683
C           1.5480403    -1.4435879    -0.9030435
H           1.8318070    -1.3374367    -1.9566288
H           0.4658973    -1.5584081    -0.8290060
H           2.0494353    -2.3179101    -0.4734941
O           1.8609442    -0.2651903    -0.1632692
C           5.7413454     0.8282060     0.7001572
H           6.7328826     1.1650433     0.9781765
C           4.6435476     1.4439354     1.4072881
N           3.3459545     0.9649122     1.0202131
C           2.1833708     1.5385122     1.7053515
H           1.5298911     2.0472731     0.9917781
H           2.5766275     2.2483933     2.4306378
H           1.6125016     0.7537946     2.2083092
C           3.1657019     0.0221114     0.0444777
C           4.2286811    -0.5511213    -0.6131396
H           4.0722747    -1.2913991    -1.3849712
C           5.5326740    -0.1208935    -0.2592017
H           6.3824937    -0.5634213    -0.7732347
O           4.7440090     2.3026878     2.2806693
19
398_C7H9NO2_0-4-13-8 (-150,) energy =    -477.3541765
C           1.5404368    -1.4617998    -0.8289603
H           1.8166229    -1.5455516    -1.8866074
H           0.4575070    -1.5555017    -0.7334596
H           2.0408066    -2.2496508    -0.2560273
O           1.8649716    -0.1723114    -0.3069564
C           5.7346137     0.8130693     0.7251287
H           6.7231705     1.1187851     1.0465006
C           4.6279479     1.4170900     1.4293135
N           3.3339279     0.9742589     0.9897953
C           2.1621522     1.5326689     1.6723113
H           1.5385722     2.0923456     0.9703486
H           2.5468936     2.1947196     2.4458205
H           1.5632029     0.7330820     2.1154230
C           3.1666077     0.0872974    -0.0391635
C           4.2373143    -0.4748703    -0.6914732
H           4.0839140    -1.1704759    -1.5052506
C           5.5385576    -0.0881963    -0.2821487
H           6.3953535    -0.5217773    -0.7921794
O           4.7190829     2.2336424     2.3432780
19
398_C7H9NO2_0-4-13-8 (-135,) energy =    -477.3519983
C           1.5257887    -1.4546839    -0.7417650
H           1.8769342    -1.7639312    -1.7329185
H           0.4345813    -1.4751619    -0.7279565
H           1.9250956    -2.1367110     0.0162819
O           1.8932316    -0.1022297    -0.4524945
C           5.7431865     0.7884689     0.7400702
H           6.7266473     1.0666988     1.1000457
C           4.6252821     1.3671854     1.4488698
N           3.3383998     0.9591656     0.9580028
C           2.1560127     1.4964236     1.6400010
H           1.5549411     2.0969300     0.9526613
H           2.5288954     2.1150598     2.4542390
H           1.5384526     0.6836511     2.0304130
C           3.1888415     0.1308229    -0.1218216
C           4.2689801    -0.4047735    -0.7775533
H           4.1228724    -1.0498875    -1.6339655
C           5.5643906    -0.0563327    -0.3182385
H           6.4295767    -0.4703970    -0.8302070
O           4.7030275     2.1347764     2.4055417
19
398_C7H9NO2_0-4-13-8 (-120,) energy =    -477.3503361
C           1.5076998    -1.4283362    -0.6401872
H           2.0558435    -1.9985731    -1.3980827
H           0.4494672    -1.3979664    -0.9054509
H           1.6320977    -1.9095053     0.3368449
O           1.9385459    -0.0627122    -0.5947798
C           5.7608702     0.7670645     0.7346405
H           6.7370081     1.0272067     1.1268364
C           4.6297889     1.3005972     1.4592122
N           3.3530250     0.9235513     0.9209157
C           2.1573868     1.4266775     1.6063140
H           1.5596259     2.0434732     0.9312779
H           2.5146335     2.0197068     2.4462930
H           1.5420088     0.5974980     1.9654925
C           3.2248575     0.1517633    -0.2030872
C           4.3160612    -0.3352938    -0.8743774
H           4.1785340    -0.9257195    -1.7712606
C           5.6040468    -0.0125585    -0.3758999
H           6.4792779    -0.3907971    -0.8982956
O           4.6911476     2.0108195     2.4603664
19
398_C7H9NO2_0-4-13-8 (-105,) energy =    -477.3495867
C           1.5322474    -1.3449622    -0.4511531
H           2.2068976    -2.0675596    -0.9233265
H           0.5487538    -1.3971168    -0.9214043
H           1.4429272    -1.5756714     0.6175073
O           1.9954056    -0.0020118    -0.6506533
C           5.7340729     0.9168694     0.8766265
H           6.6871680     1.1899039     1.3144497
C           4.5592950     1.3714356     1.5848804
N           3.3165630     0.9951720     0.9837186
C           2.1187411     1.4701651     1.6820534
H           2.2251024     2.5399410     1.8709883
H           2.0308746     0.9705093     2.6512822
H           1.2439127     1.2726266     1.0677163
C           3.2460527     0.2613063    -0.1733180
C           4.3770733    -0.1525872    -0.8264802
H           4.2813328    -0.7114036    -1.7489665
C           5.6389309     0.1887951    -0.2753090
H           6.5416490    -0.1352084    -0.7871739
O           4.5436832     2.0277704     2.6242733
19
398_C7H9NO2_0-4-13-8 (-90,) energy =    -477.3493596
C           1.4965116    -1.2671914    -0.3178382
H           2.1650303    -2.0987554    -0.5682602
H           0.5540736    -1.3736384    -0.8577550
H           1.3026976    -1.2681121     0.7616281
O           2.0607389    -0.0191388    -0.7477736
C           5.7529055     0.9318819     0.8675923
H           6.6950578     1.2073810     1.3270769
C           4.5615072     1.3262947     1.5855412
N           3.3339533     0.9594612     0.9483122
C           2.1125334     1.4053285     1.6235250
H           2.2845374     2.4126800     2.0036347
H           1.8897103     0.7603294     2.4801584
H           1.2859378     1.3917406     0.9159635
C           3.2931497     0.2650180    -0.2358229
C           4.4381979    -0.0970772    -0.8927219
H           4.3601794    -0.6332245    -1.8299646
C           5.6867892     0.2541347    -0.3163006
H           6.6021679    -0.0272239    -0.8308535
O           4.5254571     1.9323625     2.6545631
19
398_C7H9NO2_0-4-13-8 (-75,) energy =    -477.3486318
C           1.4644265    -1.2161929    -0.1703548
H           2.1181235    -2.0953710    -0.2088288
H           0.5674322    -1.3967424    -0.7650232
H           1.1793629    -1.0192712     0.8683566
O           2.1132866    -0.0865314    -0.7749369
C           5.7295238     1.0138203     0.9194720
H           6.6532988     1.3184979     1.3974216
C           4.5151257     1.3170051     1.6421339
N           3.3097515     0.9211498     0.9772888
C           2.0667445     1.3597850     1.6166305
H           2.2426411     2.3454759     2.0483129
H           1.7875333     0.6861454     2.4337348
H           1.2732720     1.3991770     0.8717420
C           3.3124242     0.2704680    -0.2336957
C           4.4799023    -0.0061103    -0.8927620
H           4.4353721    -0.5289324    -1.8393854
C           5.7046952     0.3899607    -0.2951989
H           6.6362633     0.1782250    -0.8140683
O           4.4409039     1.8821405     2.7313902
19
398_C7H9NO2_0-4-13-8 (-60,) energy =    -477.3465301
C           1.4014428    -1.1668206    -0.1135623
H           2.0448961    -1.9836234     0.2331393
H           0.6832954    -1.5515243    -0.8398583
H           0.8612380    -0.7402941     0.7351460
O           2.1734941    -0.1857768    -0.8238910
C           5.7538354     0.9960639     0.8964201
H           6.6727496     1.3085070     1.3785024
C           4.5397766     1.2283053     1.6422366
N           3.3343826     0.8285973     0.9708411
C           2.0936501     1.2962909     1.5965998
H           2.3159106     2.2364109     2.1018150
H           1.7373734     0.5900835     2.3536353
H           1.3337264     1.4423992     0.8289525
C           3.3441132     0.2300945    -0.2672882
C           4.5150684     0.0228614    -0.9479472
H           4.4782823    -0.4819237    -1.9044494
C           5.7321570     0.4357237    -0.3491589
H           6.6631184     0.2783475    -0.8881117
O           4.4598736     1.7489785     2.7529691
19
398_C7H9NO2_0-4-13-8 (-45,) energy =    -477.3441028
C           1.3235869    -1.0951088    -0.0697840
H           1.8362286    -1.6253936     0.7393786
H           0.9069301    -1.8227194    -0.7700982
H           0.5123895    -0.4889181     0.3406596
O           2.2408214    -0.3015135    -0.8359370
C           5.7782707     1.0147161     0.8719774
H           6.6915727     1.3540890     1.3461460
C           4.5709603     1.1755664     1.6422227
N           3.3648777     0.7485531     0.9756120
C           2.1185847     1.1989050     1.6067209
H           2.3749255     2.0470277     2.2408979
H           1.6797431     0.4245823     2.2430426
H           1.4053348     1.4974511     0.8368306
C           3.3815894     0.1735743    -0.2728750
C           4.5516944     0.0336085    -0.9764412
H           4.5226875    -0.4637326    -1.9370034
C           5.7568700     0.4863884    -0.3885305
H           6.6842768     0.3815775    -0.9461662
O           4.4897034     1.6633022     2.7676886
19
398_C7H9NO2_0-4-13-8 (-30,) energy =    -477.3411944
C           1.2853189    -1.0686033    -0.0792852
H           1.6774290    -1.5523679     0.8210379
H           0.8672590    -1.8303587    -0.7410937
H           0.4978740    -0.3610834     0.1904366
O           2.3277232    -0.4480750    -0.8371323
C           5.7992208     1.0564516     0.8515502
H           6.7028416     1.4303484     1.3179305
C           4.5962621     1.1633080     1.6335199
N           3.3933204     0.6932770     0.9777982
C           2.1463623     1.1453082     1.6116509
H           2.4179660     1.9646788     2.2764170
H           1.6817274     0.3626709     2.2173104
H           1.4474087     1.4924408     0.8487716
C           3.4222591     0.1212156    -0.2720963
C           4.5929167     0.0379387    -0.9883097
H           4.5759077    -0.4656247    -1.9459238
C           5.7831849     0.5371669    -0.4133417
H           6.7069235     0.4737749    -0.9832548
O           4.5076290     1.6433022     2.7617490
19
398_C7H9NO2_0-4-13-8 (-15,) energy =    -477.3382480
C           1.2234314    -1.0400897    -0.1104641
H           1.4571557    -1.5043444     0.8526015
H           0.7902678    -1.7941626    -0.7708604
H           0.4997061    -0.2333369     0.0278201
O           2.4008750    -0.6045559    -0.7876637
C           5.8023497     1.1325538     0.8201421
H           6.6953621     1.5584343     1.2614314
C           4.6079443     1.2144552     1.6140369
N           3.4105943     0.6706223     0.9932090
C           2.1625455     1.0792936     1.6558530
H           2.4401200     1.8625925     2.3602273
H           1.7050850     0.2646790     2.2221738
H           1.4557554     1.4699128     0.9217943
C           3.4486521     0.0581004    -0.2373624
C           4.6161587     0.0054541    -0.9662972
H           4.6068918    -0.5262856    -1.9086412
C           5.7910190     0.5688515    -0.4259544
H           6.7083956     0.5246642    -1.0078434
O           4.5177358     1.7250090     2.7287421
19
398_C7H9NO2_0-4-13-8 (0,) energy =    -477.3365816
C           1.1203199    -0.9144377    -0.2278613
H           1.0481518    -1.3843669     0.7565177
H           0.6713804    -1.5797324    -0.9680289
H           0.5776915     0.0345606    -0.2334113
O           2.4693312    -0.7709205    -0.6634966
C           5.7652391     1.3173244     0.7467586
H           6.6263555     1.8622620     1.1139208
C           4.5624191     1.4532776     1.5164906
N           3.4088806     0.7145414     1.0114445
C           2.1986514     0.8765335     1.8277851
H           2.4879459     1.5395898     2.6421932
H           1.8672799    -0.0760488     2.2450336
H           1.3918542     1.3424952     1.2591746
C           3.4873248    -0.0548665    -0.1244329
C           4.6686473    -0.1542661    -0.8304856
H           4.6785744    -0.7724196    -1.7182681
C           5.8060599     0.5420283    -0.3793194
H           6.7311235     0.4560634    -0.9440784
O           4.4409306     2.1267559     2.5383470
19
398_C7H9NO2_0-4-13-8 (15,) energy =    -477.3382480
C           1.1235954    -0.7488593    -0.3182949
H           0.8041391    -1.1135505     0.6608369
H           0.6347972    -1.3427393    -1.0933837
H           0.8358127     0.2998632    -0.4408404
O           2.5184957    -0.9446427    -0.5432026
C           5.6720782     1.5134791     0.5454604
H           6.4814643     2.1824372     0.8118642
C           4.4459310     1.6886371     1.2731030
N           3.3810098     0.7599990     0.9290033
C           2.2867568     0.7239753     1.9113717
H           2.6416472     1.2843044     2.7755661
H           2.0699519    -0.3066447     2.1973727
H           1.3804614     1.2110738     1.5440172
C           3.5271374    -0.1676923    -0.0754734
C           4.7230042    -0.3036910    -0.7452469
H           4.7756106    -1.0162502    -1.5578582
C           5.8013212     0.5403716    -0.4069066
H           6.7425512     0.4261267    -0.9390358
O           4.2472352     2.5153916     2.1610035
19
398_C7H9NO2_0-4-13-8 (30,) energy =    -477.3411944
C           1.1549922    -0.6889566    -0.3505714
H           0.6994056    -0.9428279     0.6093213
H           0.6762785    -1.2759703    -1.1375173
H           1.0132911     0.3758457    -0.5614660
O           2.5370479    -1.0540388    -0.4018739
C           5.6277565     1.5568075     0.4911783
H           6.4166551     2.2639405     0.7179856
C           4.4084499     1.7122918     1.2389222
N           3.3804829     0.7340922     0.9484438
C           2.3141895     0.6635185     1.9579207
H           2.6912085     1.1784273     2.8409703
H           2.0944168    -0.3793666     2.1926810
H           1.4033751     1.1750024     1.6353820
C           3.5417527    -0.2234925    -0.0248759
C           4.7235244    -0.3401230    -0.7178034
H           4.7860325    -1.0756808    -1.5089654
C           5.7774286     0.5552427    -0.4276968
H           6.7123587     0.4585054    -0.9741948
O           4.1940994     2.5584478     2.1045001
19
398_C7H9NO2_0-4-13-8 (45,) energy =    -477.3441028
C           1.1736216    -0.6585261    -0.3819458
H           0.6123630    -0.7760776     0.5481846
H           0.7221805    -1.2864317    -1.1535645
H           1.1428388     0.3874712    -0.7039548
O           2.5243405    -1.1225073    -0.2463624
C           5.5860460     1.5752707     0.4684328
H           6.3662786     2.3010686     0.6648634
C           4.3893725     1.7065153     1.2605795
N           3.3801872     0.7077808     1.0048065
C           2.3145817     0.6354523     2.0115909
H           2.6999561     1.1106062     2.9132109
H           2.0641954    -0.4087326     2.2054230
H           1.4200396     1.1828882     1.6998679
C           3.5293543    -0.2530723     0.0331532
C           4.6828849    -0.3461179    -0.7047162
H           4.7386657    -1.0907216    -1.4878657
C           5.7259900     0.5773204    -0.4551358
H           6.6428468     0.5022011    -1.0345812
O           4.1854281     2.5516202     2.1296980
19
398_C7H9NO2_0-4-13-8 (60,) energy =    -477.3465301
C           1.2231004    -0.6480636    -0.4847215
H           0.6849045    -0.2259887     0.3674812
H           0.6667483    -1.5028603    -0.8733521
H           1.3229902     0.1110721    -1.2690275
O           2.5120540    -1.1662731    -0.1198455
C           5.5498945     1.5906163     0.4684988
H           6.3211548     2.3317695     0.6425010
C           4.3850003     1.6815488     1.3163605
N           3.3893833     0.6727819     1.0825886
C           2.3374714     0.5942105     2.1009385
H           2.7716009     0.9210750     3.0460094
H           1.9821443    -0.4335256     2.1758745
H           1.5057203     1.2672541     1.8686311
C           3.5195160    -0.2766439     0.0962212
C           4.6384297    -0.3341282    -0.6925153
H           4.6831938    -1.0767781    -1.4783429
C           5.6715616     0.6128402    -0.4775818
H           6.5636003     0.5674171    -1.0973638
O           4.2005838     2.5068965     2.2085508
19
398_C7H9NO2_0-4-13-8 (75,) energy =    -477.3486318
C           1.2732451    -0.6603152    -0.5681813
H           0.7985778     0.0877808     0.0752502
H           0.6104878    -1.5206937    -0.6746198
H           1.4720833    -0.2212458    -1.5527804
O           2.4877168    -1.1709158     0.0036752
C           5.5296473     1.5966282     0.4999878
H           6.3030302     2.3379433     0.6641690
C           4.4014330     1.6511754     1.4016980
N           3.4054787     0.6473068     1.1737280
C           2.3352406     0.5862248     2.1722691
H           2.7712530     0.8187123     3.1442355
H           1.8992845    -0.4117489     2.1720661
H           1.5649202     1.3372553     1.9674069
C           3.4993283    -0.2695540     0.1537104
C           4.5794488    -0.2939920    -0.6868915
H           4.6069858    -1.0271882    -1.4825590
C           5.6124432     0.6589137    -0.4894965
H           6.4759641     0.6435741    -1.1497791
O           4.2471472     2.4500886     2.3232727
19
398_C7H9NO2_0-4-13-8 (90,) energy =    -477.3493596
C           1.3237492    -0.7649162    -0.6772363
H           0.8311491     0.1018258    -0.2201632
H           0.6369005    -1.6129819    -0.6845739
H           1.6194910    -0.5164581    -1.7028739
O           2.4630721    -1.1843321     0.0888354
C           5.5307079     1.5792942     0.4017608
H           6.3130519     2.3186851     0.5279195
C           4.4621019     1.6189472     1.3748748
N           3.4511038     0.6234721     1.1893252
C           2.3915100     0.6013814     2.2009326
H           2.8489467     0.7820636     3.1740366
H           1.8935855    -0.3659011     2.1780400
H           1.6695035     1.4045051     2.0187418
C           3.4812044    -0.2783311     0.1539812
C           4.5053860    -0.2911514    -0.7541227
H           4.4958479    -1.0272460    -1.5478723
C           5.5461594     0.6632816    -0.6111544
H           6.3651358     0.6605163    -1.3260778
O           4.3638369     2.4070102     2.3133449
19
398_C7H9NO2_0-4-13-8 (105,) energy =    -477.3495867
C           1.3617711    -0.8495224    -0.8056665
H           0.8646667     0.1033224    -0.5860895
H           0.6416964    -1.6658789    -0.7271141
H           1.7758709    -0.8177111    -1.8194501
O           2.3850980    -1.1304157     0.1595965
C           5.5055424     1.5826508     0.3976271
H           6.3027493     2.3081814     0.5102943
C           4.4794779     1.6073143     1.4149475
N           3.4406156     0.6392341     1.2390529
C           2.4064905     0.6408827     2.2776337
H           2.8920493     0.6119327     3.2547846
H           1.7614528    -0.2236181     2.1422777
H           1.8271157     1.5672777     2.2237990
C           3.4204838    -0.2424592     0.1881123
C           4.4096709    -0.2463033    -0.7598492
H           4.3709509    -0.9718296    -1.5626788
C           5.4652674     0.6937484    -0.6388720
H           6.2546009     0.6975628    -1.3864160
O           4.4288720     2.3667033     2.3804133
19
398_C7H9NO2_0-4-13-8 (120,) energy =    -477.3503361
C           1.3627694    -1.0072550    -0.9413129
H           0.9702079     0.0114053    -1.0403929
H           0.5516702    -1.6935611    -0.6918227
H           1.8195773    -1.3139798    -1.8885634
O           2.2939678    -1.0917082     0.1442083
C           5.5081217     1.5028084     0.2054336
H           6.3333774     2.2008676     0.2829141
C           4.5478139     1.5425463     1.2848945
N           3.4605214     0.6155102     1.1418842
C           2.4440638     0.6004140     2.1997328
H           2.3980854    -0.3830547     2.6731292
H           1.4593633     0.8421871     1.7908948
H           2.7456380     1.3561248     2.9228010
C           3.3651090    -0.2529931     0.0873396
C           4.2948535    -0.2731656    -0.9195113
H           4.1993287    -0.9867478    -1.7279611
C           5.3808421     0.6357984    -0.8423254
H           6.1269652     0.6309184    -1.6330640
O           4.5973090     2.2887410     2.2602068
19
398_C7H9NO2_0-4-13-8 (135,) energy =    -477.3519983
C           1.3978301    -1.0829529    -1.0074951
H           1.2215783    -0.0956627    -1.4473081
H           0.4526421    -1.5266095    -0.6894827
H           1.8671289    -1.7362095    -1.7520332
O           2.1955082    -0.9769711     0.1758484
C           5.5004100     1.4953199     0.2316034
H           6.3493112     2.1641085     0.3108371
C           4.5752178     1.5166320     1.3409208
N           3.4518463     0.6339371     1.1913105
C           2.4621558     0.6137929     2.2738600
H           2.4101956    -0.3782286     2.7294088
H           1.4730696     0.8784002     1.8916397
H           2.7956905     1.3477513     3.0051573
C           3.3009028    -0.1921024     0.1099156
C           4.1959836    -0.1923938    -0.9304581
H           4.0577833    -0.8617831    -1.7693741
C           5.3110229     0.6795364    -0.8474262
H           6.0302764     0.6876100    -1.6627281
O           4.6764043     2.2178019     2.3452033
19
398_C7H9NO2_0-4-13-8 (150,) energy =    -477.3541765
C           1.4337228    -1.1517786    -1.0504250
H           1.3551338    -0.2607510    -1.6822673
H           0.4399619    -1.5037628    -0.7690291
H           1.9543369    -1.9456217    -1.5987722
O           2.0977262    -0.8453298     0.1766772
C           5.5079964     1.4730625     0.2502838
H           6.3845412     2.1039268     0.3378390
C           4.6044909     1.4893902     1.3767107
N           3.4447812     0.6565968     1.2176769
C           2.4729349     0.6366433     2.3157774
H           2.3889192    -0.3685696     2.7368832
H           1.4893750     0.9524470     1.9589792
H           2.8472646     1.3300907     3.0665512
C           3.2385118    -0.1191115     0.1089919
C           4.1132751    -0.1144202    -0.9505930
H           3.9346173    -0.7381138    -1.8158792
C           5.2645723     0.7074842    -0.8542342
H           5.9678273     0.7180950    -1.6834162
O           4.7507197     2.1477164     2.4041436
19
398_C7H9NO2_0-4-13-8 (165,) energy =    -477.3558683
C           1.4703262    -1.2177340    -1.0641278
H           1.3994814    -0.4328562    -1.8252438
H           0.4748072    -1.5834981    -0.8094569
H           2.0763958    -2.0473845    -1.4464794
O           2.0115784    -0.6999768     0.1494485
C           5.5276960     1.4505740     0.2523031
H           6.4330507     2.0376321     0.3502608
C           4.6358226     1.4706039     1.3874141
N           3.4419022     0.6904936     1.2170644
C           2.4835388     0.6733124     2.3266938
H           2.3560027    -0.3433008     2.7078677
H           1.5121361     1.0501841     1.9965670
H           2.8999297     1.3172809     3.0990571
C           3.1848947    -0.0314006     0.0829389
C           4.0499887    -0.0321502    -0.9859832
H           3.8372064    -0.6102579    -1.8740788
C           5.2387914     0.7324910    -0.8726834
H           5.9335181     0.7386466    -1.7090871
O           4.8201255     2.0877453     2.4340811
19
398_C7H9NO2_0-4-13-8 (180,) energy =    -477.3564873
C           1.5439272    -1.4155779    -0.9565250
H           1.8554237    -1.1440279    -1.9716586
H           0.4586062    -1.5149915    -0.9179680
H           2.0132922    -2.3631607    -0.6682902
O           1.8672408    -0.3823733    -0.0296153
C           5.7390088     0.8523137     0.6604476
H           6.7278140     1.2286240     0.8937989
C           4.6453250     1.4721192     1.3701356
N           3.3502243     0.9484272     1.0365882
C           2.1907620     1.5293738     1.7206297
H           1.5074736     1.9821880     0.9972683
H           2.5836474     2.2865698     2.3965763
H           1.6523352     0.7599382     2.2799174
C           3.1693659    -0.0535444     0.1218138
C           4.2287940    -0.6278415    -0.5413691
H           4.0744229    -1.4175167    -1.2625399
C           5.5297284    -0.1459948    -0.2473107
H           6.3766024    -0.5907848    -0.7643114
O           4.7468343     2.3727254     2.2001652
