24
335_C9H13NO_8-10-11-12 (-165,) energy =    -480.7332233
C           1.8312060    -0.9028976    -1.4597909
H           2.3968368    -0.6636754    -2.3756676
H           1.2830026    -0.0014043    -1.1690068
H           1.1001175    -1.6847829    -1.6931456
N           2.6679248    -1.3484757    -0.3371755
H           3.0890150    -2.2429745    -0.5698511
C           5.6183774     1.5505189     0.6167954
H           6.3554244     2.3200811     0.8298306
C           4.3656142     1.6115426     1.2078894
H           4.1020619     2.4040047     1.9013462
C           3.4069044     0.6134020     0.9682491
O           2.2486586     0.8079390     1.6690611
C           1.2558905    -0.1986402     1.8449064
H           0.5961366     0.2000068     2.6210993
H           1.6900982    -1.1443529     2.1812811
H           0.6778586    -0.3814172     0.9361222
C           3.6855662    -0.4121685     0.0378276
C           4.9755697    -0.4760560    -0.5436786
C           5.3216469    -1.5975691    -1.5001566
H           4.6271802    -1.6523402    -2.3474572
H           5.3106454    -2.5809305    -1.0088349
H           6.3266509    -1.4567412    -1.9083114
C           5.9326308     0.4925075    -0.2379382
H           6.9193159     0.4293341    -0.6895488
24
335_C9H13NO_8-10-11-12 (-150,) energy =    -480.7355121
C           1.7504353    -0.7923687    -1.4411563
H           2.2499281    -0.4702194    -2.3695596
H           1.2258586     0.0748698    -1.0296919
H           1.0060660    -1.5568259    -1.6886822
N           2.6716831    -1.3291893    -0.4295530
H           3.0875325    -2.1891571    -0.7714492
C           5.6012958     1.5473419     0.6142927
H           6.3333544     2.3167692     0.8436798
C           4.3153820     1.6364981     1.1313241
H           4.0193498     2.4518483     1.7840667
C           3.3713831     0.6344724     0.8717391
O           2.1523830     0.8419403     1.4660268
C           1.3263993    -0.2540326     1.8585853
H           0.6424686     0.1610444     2.6046210
H           1.9170020    -1.0569750     2.3122723
H           0.7542214    -0.6695107     1.0267195
C           3.6865954    -0.4156108    -0.0193441
C           5.0058074    -0.5119876    -0.5219901
C           5.3885503    -1.6501660    -1.4435522
H           4.7480038    -1.6956745    -2.3338707
H           5.3245451    -2.6291396    -0.9476278
H           6.4198682    -1.5343929    -1.7890627
C           5.9522558     0.4582006    -0.1840847
H           6.9623794     0.3737804    -0.5769307
24
335_C9H13NO_8-10-11-12 (-135,) energy =    -480.7380224
C           1.6451798    -0.7319827    -1.4247394
H           2.0479668    -0.2960679    -2.3529676
H           1.1202528     0.0589974    -0.8839188
H           0.9220608    -1.5112631    -1.6866499
N           2.6797548    -1.3142830    -0.5579969
H           3.1003155    -2.1165474    -1.0126955
C           5.5873092     1.5197948     0.6397403
H           6.3185147     2.2770624     0.9081172
C           4.2750922     1.6259382     1.0881712
H           3.9546833     2.4446984     1.7251172
C           3.3366144     0.6387595     0.7757377
O           2.0705489     0.8437747     1.2806514
C           1.3987924    -0.2618560     1.8914347
H           0.5134539     0.1646069     2.3694778
H           2.0352218    -0.7238080     2.6574002
H           1.1105218    -1.0280732     1.1692902
C           3.6778503    -0.4136633    -0.1047173
C           5.0216220    -0.5338440    -0.5309789
C           5.4396897    -1.6743082    -1.4336829
H           4.8735917    -1.6867210    -2.3749181
H           5.3022950    -2.6561752    -0.9590182
H           6.4989157    -1.5905045    -1.6931756
C           5.9603445     0.4246453    -0.1387917
H           6.9886632     0.3243180    -0.4774038
24
335_C9H13NO_8-10-11-12 (-120,) energy =    -480.7400574
C           1.5548305    -0.7481866    -1.4285274
H           1.8874003    -0.2484046    -2.3523307
H           1.0129067    -0.0172477    -0.8264224
H           0.8697182    -1.5590057    -1.6956792
N           2.6632149    -1.3087268    -0.6437457
H           3.0889350    -2.0800110    -1.1437832
C           5.5716307     1.4595424     0.7032832
H           6.3107528     2.1870941     1.0262355
C           4.2428553     1.5856711     1.0995907
H           3.9136261     2.3945952     1.7447452
C           3.2956902     0.6415350     0.7033563
O           1.9995977     0.8354751     1.1430565
C           1.4552161    -0.2184955     1.9451792
H           0.4494921     0.1056682     2.2235291
H           2.0548205    -0.3567549     2.8546806
H           1.4091996    -1.1631584     1.3953629
C           3.6485325    -0.4081742    -0.1755883
C           5.0050437    -0.5475263    -0.5522261
C           5.4380736    -1.6792309    -1.4583810
H           4.9010503    -1.6715584    -2.4167697
H           5.2748375    -2.6661586    -1.0025183
H           6.5056119    -1.6043322    -1.6843597
C           5.9462130     0.3813092    -0.0967277
H           6.9844914     0.2664112    -0.3987466
24
335_C9H13NO_8-10-11-12 (-105,) energy =    -480.7406925
C           1.5046456    -0.7799314    -1.4603263
H           1.8007847    -0.2562891    -2.3835570
H           0.9499974    -0.0798247    -0.8354777
H           0.8459649    -1.6124136    -1.7272639
N           2.6478404    -1.3134359    -0.7080135
H           3.0810448    -2.0704144    -1.2228957
C           5.5470491     1.4002637     0.7648921
H           6.2888338     2.1005797     1.1378675
C           4.2071338     1.5378323     1.1214746
H           3.8699368     2.3332321     1.7795204
C           3.2587316     0.6342580     0.6472415
O           1.9431333     0.8037191     1.0465938
C           1.5100951    -0.1392396     2.0318209
H           0.4722414     0.1141004     2.2626774
H           2.1161247    -0.0531396     2.9434537
H           1.5657158    -1.1652656     1.6514400
C           3.6225247    -0.4098959    -0.2318198
C           4.9871621    -0.5562528    -0.5759006
C           5.4340387    -1.6734034    -1.4929087
H           4.9134892    -1.6486543    -2.4600519
H           5.2607793    -2.6674646    -1.0563576
H           6.5056225    -1.5976685    -1.6987989
C           5.9259850     0.3459803    -0.0641089
H           6.9708813     0.2251804    -0.3402788
24
335_C9H13NO_8-10-11-12 (-90,) energy =    -480.7403060
C           1.4969064    -0.8219396    -1.5280683
H           1.7743781    -0.2570702    -2.4329048
H           0.9156014    -0.1665259    -0.8804227
H           0.8712473    -1.6694833    -1.8256000
N           2.6576323    -1.3393389    -0.7928948
H           3.1066259    -2.0754887    -1.3237555
C           5.5147800     1.3382407     0.8209341
H           6.2482398     2.0220039     1.2383343
C           4.1652955     1.4686199     1.1429012
H           3.8132208     2.2464613     1.8145376
C           3.2286929     0.5890976     0.6050746
O           1.8982023     0.7253579     0.9708899
C           1.5451791    -0.0379424     2.1254776
H           0.4874781     0.1608648     2.3167995
H           2.1365522     0.2707921     2.9977599
H           1.6913964    -1.1108120     1.9499082
C           3.6133829    -0.4350633    -0.2869578
C           4.9867261    -0.5682302    -0.6044699
C           5.4578675    -1.6578933    -1.5418776
H           4.9519514    -1.6130676    -2.5160635
H           5.2864291    -2.6641669    -1.1333315
H           6.5318598    -1.5680460    -1.7288558
C           5.9120792     0.3145427    -0.0374850
H           6.9635105     0.2020273    -0.2916918
24
335_C9H13NO_8-10-11-12 (-75,) energy =    -480.7396621
C           1.5006786    -0.8615151    -1.5646981
H           1.7469700    -0.2224906    -2.4285376
H           0.8889188    -0.2830036    -0.8739229
H           0.9174568    -1.7166183    -1.9210555
N           2.6869704    -1.3729141    -0.8688767
H           3.1518228    -2.0688100    -1.4382870
C           5.4968143     1.2729003     0.8739545
H           6.2188408     1.9481809     1.3237672
C           4.1431710     1.3804438     1.1841421
H           3.7817180     2.1364991     1.8756630
C           3.2188800     0.5117202     0.6065909
O           1.8793532     0.6112301     0.9499413
C           1.5671635     0.0924880     2.2410519
H           0.4926450     0.2362040     2.3805872
H           2.1083218     0.6276521     3.0322803
H           1.8050127    -0.9771629     2.3054579
C           3.6213093    -0.4743279    -0.3197820
C           5.0000017    -0.5797437    -0.6299777
C           5.4909547    -1.6282500    -1.6032928
H           4.9978734    -1.5477919    -2.5818769
H           5.3205469    -2.6510020    -1.2373541
H           6.5667698    -1.5244882    -1.7715721
C           5.9119144     0.2870890    -0.0199489
H           6.9666886     0.1935788    -0.2678088
24
335_C9H13NO_8-10-11-12 (-60,) energy =    -480.7392037
C           1.4992524    -0.8850247    -1.5883048
H           1.7251730    -0.1931096    -2.4164447
H           0.8732220    -0.3628792    -0.8663569
H           0.9382387    -1.7346599    -1.9905489
N           2.7002905    -1.4032317    -0.9248710
H           3.1709948    -2.0664408    -1.5271799
C           5.4962756     1.1929673     0.9094565
H           6.2146319     1.8568363     1.3816503
C           4.1429045     1.2829480     1.2267412
H           3.7895097     2.0172389     1.9447298
C           3.2207724     0.4258817     0.6268953
O           1.8773085     0.4938336     0.9530218
C           1.5633239     0.2603353     2.3220904
H           0.4725274     0.2611274     2.3898058
H           1.9590389     1.0467290     2.9775601
H           1.9503984    -0.7108002     2.6564249
C           3.6265973    -0.5185412    -0.3422322
C           5.0048188    -0.6027860    -0.6602819
C           5.4982669    -1.6113778    -1.6737305
H           5.0034013    -1.4957410    -2.6479570
H           5.3325853    -2.6480456    -1.3468448
H           6.5733513    -1.4966272    -1.8394491
C           5.9152185     0.2443061    -0.0210874
H           6.9697557     0.1649846    -0.2744540
24
335_C9H13NO_8-10-11-12 (-45,) energy =    -480.7396015
C           1.5064600    -0.9278760    -1.6214847
H           1.7280270    -0.1969088    -2.4167418
H           0.8651942    -0.4481367    -0.8833984
H           0.9615940    -1.7672602    -2.0653333
N           2.7091573    -1.4572416    -0.9702522
H           3.1911564    -2.0906172    -1.5953975
C           5.4650480     1.1077393     0.9631290
H           6.1718519     1.7644322     1.4621748
C           4.1114880     1.1580597     1.2928144
H           3.7572811     1.8505080     2.0500079
C           3.2030191     0.3051370     0.6657316
O           1.8591891     0.3200117     0.9766386
C           1.5181788     0.3611018     2.3564933
H           0.4596828     0.0957992     2.4169074
H           1.6526047     1.3623510     2.7873170
H           2.1115275    -0.3592118     2.9330531
C           3.6229753    -0.5817115    -0.3531990
C           4.9987723    -0.6230529    -0.6820091
C           5.5056872    -1.5745464    -1.7431157
H           4.9994559    -1.4276847    -2.7071375
H           5.3668243    -2.6281617    -1.4609669
H           6.5763751    -1.4277377    -1.9120908
C           5.8981995     0.2124382    -0.0107173
H           6.9524983     0.1652127    -0.2725204
24
335_C9H13NO_8-10-11-12 (-30,) energy =    -480.7406788
C           1.5163052    -0.9601419    -1.6221708
H           1.7261498    -0.1964467    -2.3894824
H           0.8653462    -0.5192193    -0.8682969
H           0.9855306    -1.7911755    -2.0976156
N           2.7265731    -1.4938842    -0.9888838
H           3.2160630    -2.1002232    -1.6346866
C           5.4479794     1.0536485     1.0125033
H           6.1448352     1.7065445     1.5302415
C           4.0966924     1.0615727     1.3603038
H           3.7439085     1.7153334     2.1508653
C           3.2001935     0.2123591     0.7109568
O           1.8621418     0.1668279     1.0263417
C           1.4890512     0.4606128     2.3638900
H           0.4592288     0.1128441     2.4745784
H           1.5205297     1.5385769     2.5735967
H           2.1339125    -0.0626109     3.0810441
C           3.6302824    -0.6235335    -0.3485053
C           5.0012564    -0.6221884    -0.6911660
C           5.5165349    -1.5211944    -1.7933599
H           4.9939191    -1.3516345    -2.7447719
H           5.4071958    -2.5876029    -1.5487305
H           6.5809788    -1.3418478    -1.9701838
C           5.8912307     0.2074067     0.0020453
H           6.9433414     0.1934460    -0.2717981
24
335_C9H13NO_8-10-11-12 (-15,) energy =    -480.7415768
C           1.5196841    -0.9916666    -1.5983859
H           1.7086996    -0.2027078    -2.3453855
H           0.8707013    -0.5832308    -0.8247012
H           0.9954884    -1.8163647    -2.0917608
N           2.7448961    -1.5253413    -0.9948780
H           3.2342604    -2.1071337    -1.6628862
C           5.4573403     1.0017862     1.0409672
H           6.1515601     1.6488315     1.5694949
C           4.1121201     0.9748653     1.4146229
H           3.7698947     1.5942508     2.2359362
C           3.2172398     0.1359219     0.7498589
O           1.8901174     0.0327408     1.0877898
C           1.4761675     0.5513492     2.3397802
H           0.4414947     0.2274628     2.4713999
H           1.5110103     1.6493042     2.3613834
H           2.0905439     0.1574236     3.1598468
C           3.6454921    -0.6597814    -0.3428347
C           5.0089673    -0.6250623    -0.7070439
C           5.5196993    -1.4786609    -1.8468897
H           4.9779051    -1.2870958    -2.7832610
H           5.4325274    -2.5542346    -1.6357791
H           6.5778060    -1.2754224    -2.0355109
C           5.8979320     0.1977928    -0.0030471
H           6.9450490     0.2112098    -0.2952347
24
335_C9H13NO_8-10-11-12 (0,) energy =    -480.7418651
C           1.8485323    -2.3434638    -0.2161237
H           1.1528639    -1.7969341     0.4196197
H           2.4826412    -2.9764728     0.4267763
H           1.2726032    -2.9943193    -0.8815820
N           2.6140037    -1.4070240    -1.0449574
H           3.0574853    -1.9023152    -1.8078090
C           5.3014744     1.3601985     0.6871788
H           5.9861477     2.0777752     1.1301736
C           3.9726066     1.3165944     1.1148444
H           3.6332059     2.0066242     1.8785686
C           3.0835602     0.4044873     0.5452747
O           1.7516275     0.3419237     0.8717502
C           1.2524617     1.2500168     1.8369578
H           0.1859914     1.0337631     1.9277412
H           1.3837889     2.2925231     1.5174901
H           1.7340845     1.1116828     2.8145587
C           3.5217075    -0.5113943    -0.4454264
C           4.8655946    -0.4505657    -0.8720498
C           5.3731919    -1.3909361    -1.9429213
H           4.8870139    -1.2201751    -2.9142572
H           5.2107787    -2.4452301    -1.6799401
H           6.4477723    -1.2554555    -2.0958925
C           5.7351689     0.4910124    -0.3057383
H           6.7674263     0.5243545    -0.6452978
24
335_C9H13NO_8-10-11-12 (15,) energy =    -480.7415768
C           1.8858771    -2.4083209    -0.2105619
H           1.2300520    -1.8895339     0.4875355
H           2.5499451    -3.0738486     0.3658739
H           1.2698921    -3.0243424    -0.8734399
N           2.6112300    -1.4358703    -1.0341994
H           3.0330652    -1.9013049    -1.8276858
C           5.3306774     1.2994592     0.7010386
H           6.0246304     2.0066116     1.1463653
C           4.0170705     1.2276613     1.1692708
H           3.6950643     1.8843050     1.9695476
C           3.1160370     0.3318844     0.5928384
O           1.8017909     0.2336224     0.9791038
C           1.2556692     1.2780421     1.7656969
H           0.1827853     1.0817396     1.8219087
H           1.4249056     2.2590239     1.3029020
H           1.6700057     1.2856021     2.7832696
C           3.5304626    -0.5509204    -0.4364501
C           4.8603349    -0.4645514    -0.9021784
C           5.3412059    -1.3646274    -2.0190279
H           4.8209856    -1.1686285    -2.9677012
H           5.1983303    -2.4284416    -1.7846875
H           6.4086008    -1.2123008    -2.2032534
C           5.7390439     0.4669006    -0.3336466
H           6.7592636     0.5216837    -0.7053432
24
335_C9H13NO_8-10-11-12 (30,) energy =    -480.7406788
C           1.9009277    -2.4326809    -0.1831190
H           1.2605902    -1.9340432     0.5433878
H           2.5804351    -3.1103072     0.3601346
H           1.2716764    -3.0336481    -0.8473986
N           2.6043378    -1.4367050    -0.9979363
H           3.0111603    -1.8804974    -1.8114794
C           5.3490143     1.2683873     0.7488606
H           6.0506121     1.9659808     1.1972623
C           4.0498626     1.1693778     1.2482502
H           3.7396617     1.7928005     2.0800923
C           3.1392459     0.2879400     0.6648151
O           1.8422519     0.1635868     1.1055736
C           1.2279137     1.3069949     1.6798131
H           0.1569128     1.0929378     1.7092342
H           1.4082187     2.2029091     1.0725672
H           1.5776672     1.4922283     2.7046709
C           3.5313929    -0.5619186    -0.3982631
C           4.8498465    -0.4520267    -0.8948505
C           5.3078418    -1.3139220    -2.0506800
H           4.7614943    -1.0933758    -2.9790597
H           5.1786030    -2.3854441    -1.8452543
H           6.3689812    -1.1478276    -2.2577326
C           5.7349476     0.4693772    -0.3217646
H           6.7445735     0.5437185    -0.7183056
24
335_C9H13NO_8-10-11-12 (45,) energy =    -480.7396015
C           1.9034230    -2.4357973    -0.1496145
H           1.2900594    -1.9498564     0.6078740
H           2.5897966    -3.1354933     0.3555148
H           1.2495216    -3.0110931    -0.8128596
N           2.5965045    -1.4253507    -0.9554977
H           2.9810932    -1.8513685    -1.7891011
C           5.3976403     1.2257845     0.7872406
H           6.1147166     1.9087740     1.2335486
C           4.1167484     1.1079672     1.3246261
H           3.8285497     1.6984128     2.1886890
C           3.1877782     0.2439085     0.7445889
O           1.9083874     0.1121501     1.2431509
C           1.2206919     1.3113671     1.5762122
H           0.1680117     1.0387241     1.6856612
H           1.3258425     2.0619248     0.7831535
H           1.5708969     1.7406197     2.5245147
C           3.5411512    -0.5695994    -0.3574162
C           4.8447463    -0.4440939    -0.8936363
C           5.2646895    -1.2685953    -2.0903379
H           4.6857457    -1.0221181    -2.9920413
H           5.1455636    -2.3463687    -1.9131651
H           6.3175612    -1.0924259    -2.3288823
C           5.7467048     0.4593927    -0.3210729
H           6.7430008     0.5465889    -0.7478139
24
335_C9H13NO_8-10-11-12 (60,) energy =    -480.7392036
C           1.9021634    -2.4078705    -0.1017285
H           1.3223815    -1.9329029     0.6882152
H           2.5878289    -3.1366877     0.3611897
H           1.2179245    -2.9484891    -0.7635164
N           2.5945364    -1.3871097    -0.8953624
H           2.9513811    -1.7946871    -1.7501815
C           5.4722248     1.1820809     0.8484969
H           6.2106239     1.8430322     1.2930581
C           4.2094587     1.0513971     1.4220241
H           3.9483581     1.6038473     2.3199298
C           3.2586673     0.2088352     0.8468871
O           1.9942523     0.0906634     1.3976596
C           1.2364279     1.2943472     1.4638040
H           0.2477299     1.0131395     1.8351058
H           1.1380163     1.7544979     0.4721944
H           1.6787256     2.0246988     2.1534276
C           3.5640179    -0.5605040    -0.2979224
C           4.8510504    -0.4229426    -0.8744406
C           5.2243117    -1.2050517    -2.1140981
H           4.6140027    -0.9249704    -2.9847599
H           5.1073997    -2.2882554    -1.9713074
H           6.2685943    -1.0235510    -2.3842285
C           5.7764408     0.4533847    -0.2994615
H           6.7588154     0.5493475    -0.7558340
24
335_C9H13NO_8-10-11-12 (75,) energy =    -480.7396621
C           1.9054198    -2.3852365    -0.0781699
H           1.3670432    -1.9369601     0.7556732
H           2.6009969    -3.1401107     0.3237845
H           1.1865169    -2.8893959    -0.7318836
N           2.5773722    -1.3380999    -0.8559673
H           2.9083966    -1.7153359    -1.7350022
C           5.5102901     1.1477029     0.9193537
H           6.2617387     1.7884319     1.3715133
C           4.2552703     1.0101282     1.5076823
H           4.0022001     1.5346234     2.4249219
C           3.2922962     0.1883617     0.9246396
O           2.0373826     0.0868819     1.5051725
C           1.2023231     1.2233246     1.2937558
H           0.2576433     1.0116781     1.8012001
H           1.0156108     1.3831971     0.2239653
H           1.6444898     2.1334473     1.7197371
C           3.5681093    -0.5407811    -0.2520855
C           4.8461571    -0.3953157    -0.8466946
C           5.1920800    -1.1395299    -2.1172162
H           4.5718096    -0.8242841    -2.9686011
H           5.0652816    -2.2254873    -2.0083689
H           6.2340343    -0.9601455    -2.3975993
C           5.7880642     0.4533578    -0.2570482
H           6.7643252     0.5549316    -0.7253690
24
335_C9H13NO_8-10-11-12 (90,) energy =    -480.7403068
C           1.9083363    -2.3534859    -0.0361351
H           1.4430778    -1.9408533     0.8584252
H           2.6185682    -3.1376442     0.2727759
H           1.1325203    -2.8120853    -0.6575342
N           2.5394966    -1.2739394    -0.8056596
H           2.8308416    -1.6172573    -1.7127369
C           5.5642993     1.1017490     0.9674629
H           6.3382136     1.7150374     1.4198578
C           4.3174984     0.9774208     1.5770936
H           4.0858435     1.4856955     2.5088174
C           3.3280684     0.1898959     0.9930676
O           2.0879861     0.1109046     1.6079191
C           1.1690314     1.1103088     1.1643225
H           0.2437640     0.9503895     1.7239071
H           0.9697098     1.0148146     0.0899133
H           1.5512602     2.1181531     1.3743497
C           3.5646586    -0.5117865    -0.2086264
C           4.8305215    -0.3759864    -0.8277707
C           5.1338523    -1.0928948    -2.1247985
H           4.5071245    -0.7378374    -2.9555026
H           4.9803966    -2.1776789    -2.0436522
H           6.1749679    -0.9327137    -2.4196032
C           5.8027919     0.4353249    -0.2332777
H           6.7715278     0.5292655    -0.7185484
24
335_C9H13NO_8-10-11-12 (105,) energy =    -480.7406925
C           1.9116256    -2.2886777     0.0071554
H           1.4864198    -1.8876880     0.9272821
H           2.6280361    -3.0814011     0.2765910
H           1.1077032    -2.7325753    -0.5885079
N           2.5205458    -1.2008177    -0.7695879
H           2.7864278    -1.5350232    -1.6879656
C           5.6339373     1.0569665     1.0048925
H           6.4338282     1.6308086     1.4638964
C           4.3880471     0.9670508     1.6222507
H           4.1797824     1.4669189     2.5636000
C           3.3617618     0.2360299     1.0279610
O           2.1364544     0.1935493     1.6727834
C           1.1319159     1.0105392     1.0638291
H           0.2321615     0.8947545     1.6734633
H           0.9276751     0.6895838     0.0363187
H           1.4374058     2.0652583     1.0643137
C           3.5696619    -0.4595692    -0.1837546
C           4.8307899    -0.3498445    -0.8158426
C           5.0977144    -1.0535354    -2.1281720
H           4.4648026    -0.6734912    -2.9428737
H           4.9239096    -2.1361941    -2.0604496
H           6.1368848    -0.9101471    -2.4379865
C           5.8371740     0.4138009    -0.2146797
H           6.8034013     0.4859730    -0.7085063
24
335_C9H13NO_8-10-11-12 (120,) energy =    -480.7400574
C           1.9575486    -2.2429421     0.0246951
H           1.5606092    -1.8598645     0.9660624
H           2.6979074    -3.0240188     0.2604620
H           1.1382731    -2.6961356    -0.5423860
N           2.5170023    -1.1350658    -0.7615989
H           2.7668225    -1.4574377    -1.6888686
C           5.6945597     1.0050853     1.0439465
H           6.5162724     1.5300741     1.5225995
C           4.4431057     0.9567136     1.6523347
H           4.2504559     1.4466278     2.6019872
C           3.3809115     0.3008975     1.0301112
O           2.1699563     0.3025610     1.6967586
C           1.0802168     0.9130406     0.9964726
H           0.2203845     0.8513738     1.6679859
H           0.8633808     0.3971757     0.0564363
H           1.3013122     1.9683951     0.7887039
C           3.5768432    -0.3980328    -0.1831726
C           4.8425697    -0.3219502    -0.8105018
C           5.0888209    -1.0194205    -2.1304591
H           4.4619201    -0.6178227    -2.9392836
H           4.8914998    -2.0985986    -2.0722021
H           6.1299791    -0.8966038    -2.4422697
C           5.8768300     0.3884855    -0.1927695
H           6.8466807     0.4338658    -0.6824287
24
335_C9H13NO_8-10-11-12 (135,) energy =    -480.7380224
C           2.0424770    -2.2109130     0.0106178
H           1.6996109    -1.8816293     0.9943351
H           2.8237879    -2.9725902     0.1631552
H           1.1990781    -2.6718631    -0.5137671
N           2.5050870    -1.0484846    -0.7610126
H           2.7262422    -1.3289757    -1.7095195
C           5.7482795     0.9485132     1.0867245
H           6.5891855     1.4186394     1.5887205
C           4.4893693     0.9551824     1.6777997
H           4.3103645     1.4398775     2.6326596
C           3.3954211     0.3824767     1.0234595
O           2.1962460     0.4552127     1.6991660
C           1.0302536     0.8449699     0.9675358
H           0.2558749     1.0082354     1.7211284
H           0.7113424     0.0853041     0.2513759
H           1.2106801     1.7829828     0.4264969
C           3.5805951    -0.3214717    -0.1887298
C           4.8561693    -0.2968121    -0.8004210
C           5.0848871    -0.9955951    -2.1231850
H           4.4772872    -0.5680579    -2.9332966
H           4.8495681    -2.0672916    -2.0718412
H           6.1315008    -0.9074509    -2.4283890
C           5.9170821     0.3522030    -0.1624910
H           6.8938435     0.3594817    -0.6400337
24
335_C9H13NO_8-10-11-12 (150,) energy =    -480.7355121
C           2.1194138    -2.1918003    -0.0827105
H           1.8413195    -1.9866868     0.9551614
H           2.9464383    -2.9205203    -0.0684370
H           1.2582203    -2.6461802    -0.5843421
N           2.4554515    -0.9289483    -0.7553905
H           2.6193147    -1.1027456    -1.7414492
C           5.7778430     0.9282361     1.1045168
H           6.6351013     1.3614071     1.6124710
C           4.5164420     1.0086538     1.6800555
H           4.3533283     1.5161329     2.6257631
C           3.3970273     0.4846194     1.0206071
O           2.2147007     0.6569700     1.6948335
C           0.9781644     0.7906952     0.9944028
H           0.3012634     1.2721831     1.7061568
H           0.5629064    -0.1705831     0.6853473
H           1.0873552     1.4254110     0.1086415
C           3.5629707    -0.2377130    -0.1822068
C           4.8472553    -0.2937751    -0.7735881
C           5.0508351    -1.0216943    -2.0850406
H           4.5033619    -0.5507864    -2.9138626
H           4.7228532    -2.0680196    -2.0333778
H           6.1088637    -1.0246431    -2.3624648
C           5.9348936     0.3059769    -0.1344088
H           6.9168136     0.2557227    -0.5982104
24
335_C9H13NO_8-10-11-12 (165,) energy =    -480.7332233
C           2.1574343    -2.1814711    -0.2151289
H           1.9054078    -2.0990081     0.8466881
H           3.0102405    -2.8755591    -0.2985518
H           1.2977664    -2.6178237    -0.7355683
N           2.4185306    -0.8421357    -0.7600263
H           2.5431966    -0.9099733    -1.7657298
C           5.7934430     0.9359498     1.1021721
H           6.6599213     1.3551935     1.6064524
C           4.5301122     1.0977105     1.6502238
H           4.3759866     1.6545851     2.5691768
C           3.3932168     0.5878408     1.0018886
O           2.2294982     0.8807412     1.6580014
C           0.9390757     0.7541804     1.0676590
H           0.2691233     1.2722820     1.7600496
H           0.6233603    -0.2868765     0.9679500
H           0.8925505     1.2311308     0.0845970
C           3.5467279    -0.1839080    -0.1711291
C           4.8393809    -0.3247052    -0.7328818
C           5.0263640    -1.0977157    -2.0212539
H           4.5257935    -0.6142625    -2.8722652
H           4.6347011    -2.1201574    -1.9548040
H           6.0880073    -1.1689474    -2.2748201
C           5.9451942     0.2479474    -0.1029576
H           6.9308116     0.1340841    -0.5468993
24
335_C9H13NO_8-10-11-12 (180,) energy =    -480.7315794
C           2.1719593    -2.1404675    -0.3510604
H           1.9124963    -2.1394321     0.7121257
H           3.0267704    -2.8250266    -0.4781116
H           1.3179034    -2.5422097    -0.9074230
N           2.4253674    -0.7633901    -0.7953731
H           2.5368897    -0.7572837    -1.8056261
C           5.8189878     0.9702868     1.0915262
H           6.6864407     1.3890387     1.5946825
C           4.5509970     1.1922890     1.6037458
H           4.3947701     1.7945114     2.4931805
C           3.4107374     0.6782471     0.9609406
O           2.2528531     1.0673212     1.5724363
C           0.9452104     0.7016574     1.1458782
H           0.2775808     1.2309414     1.8319253
H           0.7672464    -0.3740923     1.2326027
H           0.7447367     1.0117753     0.1182062
C           3.5646524    -0.1407243    -0.1795903
C           4.8655462    -0.3418491    -0.7055701
C           5.0558863    -1.1438083    -1.9759687
H           4.5842229    -0.6602179    -2.8432087
H           4.6367507    -2.1540441    -1.9039301
H           6.1200144    -1.2453436    -2.2079528
C           5.9760843     0.2206057    -0.0757004
H           6.9663467     0.0611152    -0.4944178
