24
335_C9H13NO_0-4-16-17 (-165,) energy =    -480.7404310
C           1.5103550    -1.9774746    -0.6573293
H           0.8864180    -1.1576664    -1.0424222
H           1.2609750    -2.1273611     0.3928604
H           1.2547354    -2.8899608    -1.2057338
N           2.9413624    -1.7590067    -0.8325086
H           3.2777161    -2.1146760    -1.7143287
C           5.3360321     1.4717157     0.4710242
H           5.9613958     2.2959854     0.8008040
C           4.0702176     1.2899783     1.0308650
H           3.7225246     1.9735053     1.7966442
C           3.2546440     0.2354258     0.6198023
O           2.0113524    -0.0041314     1.1623692
C           1.5266124     0.8810880     2.1530971
H           0.5356070     0.5115466     2.4258904
H           1.4371449     1.9084414     1.7738081
H           2.1678500     0.8846503     3.0451388
C           3.6869877    -0.6634018    -0.3906910
C           4.9834891    -0.4796271    -0.9314453
C           5.5061191    -1.4363314    -1.9774306
H           4.9125414    -1.4116601    -2.9047296
H           5.5012950    -2.4753883    -1.6199731
H           6.5344754    -1.1849516    -2.2519818
C           5.7828331     0.5833440    -0.4988095
H           6.7711660     0.7043980    -0.9355786
24
335_C9H13NO_0-4-16-17 (-150,) energy =    -480.7411919
C           1.5000081    -1.8837264    -0.7649545
H           1.0424811    -1.0298641    -1.2879243
H           1.0812805    -1.9293888     0.2396035
H           1.2241556    -2.7992155    -1.2978216
N           2.9605731    -1.8252069    -0.7272581
H           3.3658283    -2.2815654    -1.5310832
C           5.3099597     1.5010379     0.4106129
H           5.9195539     2.3517051     0.7007582
C           4.0592938     1.3072143     1.0000038
H           3.7098758     2.0044336     1.7525589
C           3.2688861     0.2150362     0.6413635
O           2.0552931    -0.0584449     1.2292052
C           1.5743769     0.8256588     2.2235503
H           0.6115913     0.4213123     2.5435720
H           1.4267575     1.8408523     1.8301553
H           2.2512436     0.8721675     3.0874536
C           3.7030341    -0.6979012    -0.3548640
C           4.9831412    -0.5013253    -0.9255573
C           5.5115429    -1.4716049    -1.9571717
H           4.8714839    -1.5222548    -2.8509863
H           5.5936165    -2.4933214    -1.5600889
H           6.5078607    -1.1716985    -2.2940574
C           5.7650252     0.5917672    -0.5357600
H           6.7422651     0.7248934    -0.9933616
24
335_C9H13NO_0-4-16-17 (-135,) energy =    -480.7417486
C           1.5090218    -1.7970744    -0.8868703
H           1.2447305    -1.0430919    -1.6464407
H           0.9487460    -1.5772321     0.0205090
H           1.2016816    -2.7800618    -1.2571603
N           2.9456303    -1.8548600    -0.6057196
H           3.4197051    -2.4085932    -1.3058281
C           5.2525564     1.5462358     0.3905628
H           5.8475300     2.4169640     0.6504729
C           4.0187628     1.3380891     1.0104492
H           3.6691925     2.0429756     1.7557561
C           3.2511519     0.2176900     0.6910252
O           2.0604036    -0.0809412     1.3083367
C           1.5915303     0.7885925     2.3221813
H           0.6543442     0.3555033     2.6781139
H           1.3985874     1.7989542     1.9363130
H           2.3000784     0.8543476     3.1587880
C           3.6889953    -0.7035850    -0.2952914
C           4.9467721    -0.4876698    -0.9021694
C           5.4753207    -1.4600914    -1.9329819
H           4.7926622    -1.5730607    -2.7872827
H           5.6397324    -2.4633587    -1.5142424
H           6.4351895    -1.1167360    -2.3293092
C           5.7121523     0.6298799    -0.5467413
H           6.6753598     0.7802734    -1.0280104
24
335_C9H13NO_0-4-16-17 (-120,) energy =    -480.7417677
C           1.5617217    -1.7425338    -1.0102886
H           1.5127522    -1.1725626    -1.9531240
H           0.9335075    -1.2425811    -0.2727856
H           1.1550098    -2.7432006    -1.1882317
N           2.9239343    -1.8850498    -0.4848669
H           3.4503541    -2.5258007    -1.0661927
C           5.2107060     1.5645580     0.3806333
H           5.7965721     2.4490484     0.6142608
C           3.9952879     1.3474616     1.0342486
H           3.6509824     2.0590221     1.7757677
C           3.2418302     0.2090436     0.7457449
O           2.0610546    -0.0987146     1.3722907
C           1.6040739     0.7592905     2.4022366
H           0.6828382     0.3100993     2.7788294
H           1.3865024     1.7684258     2.0264192
H           2.3326504     0.8315293     3.2207601
C           3.6818959    -0.7216781    -0.2293509
C           4.9082837    -0.4870774    -0.8841380
C           5.4216749    -1.4593937    -1.9234775
H           4.6889581    -1.6362771    -2.7221785
H           5.6739467    -2.4387527    -1.4919513
H           6.3313086    -1.0748431    -2.3939010
C           5.6634190     0.6488137    -0.5606252
H           6.6090443     0.8152951    -1.0705343
24
335_C9H13NO_0-4-16-17 (-105,) energy =    -480.7419233
C           1.8390043    -1.9415190    -1.3712430
H           2.4338355    -1.9305920    -2.2907084
H           1.1727689    -1.0661441    -1.3804399
H           1.2264551    -2.8496939    -1.3795040
N           2.7410933    -1.9906765    -0.2071914
H           2.1502659    -2.0539856     0.6211007
C           5.1765306     1.4315875     0.3294944
H           5.8043774     2.3064919     0.4766473
C           3.8299124     1.4862138     0.6990200
H           3.4234545     2.3950346     1.1281942
C           3.0295551     0.3585823     0.5073535
O           1.7046349     0.2841373     0.8596253
C           1.1102275     1.4149118     1.4748399
H           0.0756757     1.1348276     1.6829472
H           1.1217165     2.2886706     0.8099294
H           1.6132374     1.6734207     2.4159855
C           3.5607737    -0.8215177    -0.0613701
C           4.9224632    -0.8736481    -0.3968594
C           5.5180331    -2.1357845    -0.9721532
H           5.3384127    -2.2071457    -2.0535571
H           5.0639403    -3.0197662    -0.5173619
H           6.6019921    -2.1620101    -0.8193022
C           5.7165620     0.2682899    -0.2068158
H           6.7702040     0.2315327    -0.4718772
24
335_C9H13NO_0-4-16-17 (-90,) energy =    -480.7437959
C           1.9844984    -2.0575317    -1.4451040
H           2.7183199    -2.1915274    -2.2460805
H           1.3669528    -1.1789079    -1.6898066
H           1.3420616    -2.9444249    -1.4280906
N           2.6772113    -1.9494481    -0.1515543
H           1.9644491    -1.8906161     0.5724780
C           5.1650113     1.4377065     0.3243446
H           5.8072190     2.3039892     0.4591905
C           3.8304901     1.5003866     0.7346759
H           3.4450218     2.4109536     1.1792625
C           3.0124776     0.3842771     0.5547353
O           1.6904805     0.3252132     0.9262327
C           1.1220040     1.4581215     1.5608019
H           0.0854772     1.1928974     1.7785609
H           1.1398550     2.3387446     0.9050910
H           1.6405991     1.6982558     2.4984239
C           3.5169978    -0.8011524    -0.0271603
C           4.8664672    -0.8612552    -0.4107936
C           5.4351022    -2.1299603    -0.9974310
H           5.2246094    -2.2118168    -2.0727124
H           4.9900320    -3.0068786    -0.5179445
H           6.5227837    -2.1643650    -0.8768581
C           5.6742013     0.2730473    -0.2389811
H           6.7185078     0.2277338    -0.5376784
24
335_C9H13NO_0-4-16-17 (-75,) energy =    -480.7447249
C           2.1037361    -2.1785220    -1.4954821
H           2.9304295    -2.4948876    -2.1368489
H           1.5997128    -1.3286455    -1.9836614
H           1.3970583    -3.0123565    -1.4304833
N           2.5918692    -1.8740880    -0.1445628
H           1.7921430    -1.7175592     0.4619032
C           5.1564231     1.4525365     0.3220081
H           5.8129612     2.3079758     0.4551782
C           3.8327978     1.5249565     0.7658140
H           3.4678842     2.4331933     1.2320297
C           2.9946065     0.4255619     0.5873425
O           1.6771032     0.3842040     0.9821869
C           1.1442746     1.5096106     1.6583891
H           0.1087501     1.2568282     1.8951288
H           1.1615745     2.4062302     1.0245596
H           1.6899542     1.7170082     2.5884011
C           3.4654505    -0.7617263    -0.0232185
C           4.8068782    -0.8325892    -0.4380232
C           5.3637913    -2.1075200    -1.0232699
H           5.1895735    -2.1797051    -2.1056374
H           4.8933222    -2.9805975    -0.5592314
H           6.4461518    -2.1649013    -0.8681026
C           5.6333361     0.2885156    -0.2689307
H           6.6704672     0.2297338    -0.5900686
24
335_C9H13NO_0-4-16-17 (-60,) energy =    -480.7443704
C           2.1808999    -2.2968626    -1.5243770
H           3.0149728    -2.8642858    -1.9421261
H           1.9152221    -1.5029792    -2.2416659
H           1.3311497    -2.9812075    -1.4378389
N           2.4947793    -1.7914285    -0.1866310
H           1.6407907    -1.5557333     0.3057297
C           5.1473904     1.4543964     0.3406715
H           5.8195153     2.2951662     0.4871332
C           3.8301394     1.5317014     0.8034463
H           3.4822294     2.4318300     1.2975423
C           2.9741954     0.4518830     0.6061837
O           1.6577644     0.4250643     1.0109107
C           1.1498733     1.5421913     1.7180431
H           0.1114756     1.3024833     1.9559623
H           1.1796329     2.4540184     1.1066413
H           1.7054702     1.7161605     2.6490200
C           3.4136825    -0.7308441    -0.0428979
C           4.7511312    -0.8083424    -0.4746361
C           5.3130953    -2.0792425    -1.0671840
H           5.0959099    -2.1811453    -2.1388174
H           4.8991323    -2.9600295    -0.5637945
H           6.4021022    -2.1018665    -0.9570090
C           5.5946030     0.2975130    -0.2841300
H           6.6273482     0.2278946    -0.6172428
24
335_C9H13NO_0-4-16-17 (-45,) energy =    -480.7432882
C           2.2555505    -2.4107083    -1.5187773
H           3.0001961    -3.1978357    -1.6595356
H           2.2966385    -1.7399531    -2.3920150
H           1.2729899    -2.8920048    -1.5070474
N           2.4263132    -1.7114563    -0.2489440
H           1.5410316    -1.4163752     0.1411262
C           5.1564682     1.4459141     0.3854513
H           5.8427144     2.2697933     0.5584995
C           3.8412118     1.5246554     0.8543009
H           3.5058961     2.4108577     1.3812007
C           2.9700470     0.4663845     0.6224666
O           1.6514725     0.4476607     1.0249736
C           1.1534031     1.5583242     1.7481761
H           0.1092569     1.3300234     1.9718910
H           1.2034863     2.4813367     1.1550402
H           1.7022151     1.7055390     2.6877347
C           3.3847254    -0.7033819    -0.0710028
C           4.7209605    -0.7833344    -0.5121668
C           5.2879587    -2.0374096    -1.1407740
H           4.9608107    -2.1892649    -2.1765698
H           4.9984333    -2.9294081    -0.5728820
H           6.3814120    -1.9899506    -1.1512759
C           5.5792713     0.3042049    -0.2811981
H           6.6091617     0.2299962    -0.6220168
24
335_C9H13NO_0-4-16-17 (-30,) energy =    -480.7417396
C           2.2866408    -2.5101031    -1.4715634
H           3.0177859    -3.3205980    -1.4239708
H           2.4095577    -1.9918209    -2.4362234
H           1.2933632    -2.9687154    -1.4627709
N           2.3703804    -1.6220034    -0.3242418
H           1.4726721    -1.2807507    -0.0120970
C           5.1859593     1.4222980     0.4579907
H           5.8884833     2.2226365     0.6706003
C           3.8662465     1.5113008     0.9120479
H           3.5416445     2.3823141     1.4700479
C           2.9771671     0.4828200     0.6292537
O           1.6514729     0.4811543     1.0122567
C           1.1618853     1.5883151     1.7457765
H           0.1078100     1.3799821     1.9408043
H           1.2475999     2.5217075     1.1732492
H           1.6911266     1.7037972     2.7009080
C           3.3700196    -0.6734984    -0.1043708
C           4.7098830    -0.7603432    -0.5410955
C           5.2810871    -1.9859025    -1.2261029
H           4.8731036    -2.1577610    -2.2281361
H           5.1029205    -2.8952172    -0.6396263
H           6.3646544    -1.8767818    -1.3340742
C           5.5867611     0.2988633    -0.2505224
H           6.6174851     0.2168785    -0.5869891
24
335_C9H13NO_0-4-16-17 (-15,) energy =    -480.7401552
C           2.3004466    -2.6000013    -1.3920081
H           3.0440119    -3.3753570    -1.1907223
H           2.4339425    -2.2554402    -2.4297895
H           1.3150119    -3.0707432    -1.3251913
N           2.3397444    -1.5332098    -0.4134574
H           1.4385371    -1.1759807    -0.1359725
C           5.2264277     1.3844907     0.5542146
H           5.9454128     2.1538083     0.8192859
C           3.8962151     1.4933831     0.9718283
H           3.5792748     2.3487727     1.5576993
C           2.9884538     0.5035248     0.6230731
O           1.6524121     0.5247694     0.9712060
C           1.1704311     1.6242639     1.7205454
H           0.1049376     1.4415537     1.8754313
H           1.3016779     2.5707375     1.1789587
H           1.6705498     1.6971514     2.6954681
C           3.3670485    -0.6365663    -0.1466285
C           4.7148099    -0.7362252    -0.5612211
C           5.2770658    -1.9190570    -1.3273714
H           4.7850746    -2.0879562    -2.2902448
H           5.2075857    -2.8520301    -0.7547324
H           6.3382429    -1.7500331    -1.5345790
C           5.6114053     0.2828852    -0.1954624
H           6.6462288     0.1900385    -0.5162194
24
335_C9H13NO_0-4-16-17 (0,) energy =    -480.7392574
C           2.3402320    -2.6676992    -1.2836130
H           2.8627850    -3.4996158    -0.7888228
H           2.7705271    -2.5381133    -2.2816625
H           1.2974940    -2.9711559    -1.4172327
N           2.3423657    -1.4419383    -0.5174678
H           1.4764515    -1.1951301    -0.0663891
C           5.2657045     1.3858564     0.5860708
H           5.9940072     2.1329980     0.8865891
C           3.9285902     1.5117008     0.9765618
H           3.6161399     2.3562832     1.5803185
C           3.0096865     0.5486737     0.5858097
O           1.6701163     0.5782605     0.9214835
C           1.2029414     1.6430756     1.7278037
H           0.1355461     1.4656246     1.8757796
H           1.3434535     2.6140091     1.2341661
H           1.7066363     1.6613178     2.7036044
C           3.3803212    -0.5770335    -0.2098852
C           4.7368005    -0.6978746    -0.5904258
C           5.2808486    -1.8365768    -1.4337261
H           4.9147951    -1.8094112    -2.4671374
H           5.0408856    -2.8232341    -1.0260665
H           6.3719554    -1.7666723    -1.4818021
C           5.6442692     0.2949266    -0.1822726
H           6.6835380     0.1892093    -0.4843589
24
335_C9H13NO_0-4-16-17 (15,) energy =    -480.7401554
C           2.3745842    -2.7045345    -1.1826570
H           2.8946957    -3.4314555    -0.5389551
H           2.8420587    -2.7262947    -2.1705509
H           1.3437513    -3.0505924    -1.3040761
N           2.3217320    -1.3677745    -0.6285051
H           1.4705356    -1.1390795    -0.1386613
C           5.2918931     1.3329101     0.6630016
H           6.0328255     2.0452340     1.0132328
C           3.9474913     1.4883455     1.0154412
H           3.6427467     2.3184683     1.6426801
C           3.0127487     0.5684889     0.5621108
O           1.6668413     0.6230092     0.8658219
C           1.2066407     1.6743405     1.6938651
H           0.1307993     1.5233990     1.8053152
H           1.3889268     2.6559802     1.2366687
H           1.6818288     1.6463530     2.6837013
C           3.3743068    -0.5371261    -0.2640865
C           4.7358770    -0.6822410    -0.6152021
C           5.2590238    -1.7675813    -1.5376008
H           4.8327132    -1.6930070    -2.5454823
H           5.0634990    -2.7807024    -1.1730056
H           6.3438451    -1.6679324    -1.6417477
C           5.6608153     0.2634701    -0.1394359
H           6.7037696     0.1424556    -0.4221958
24
335_C9H13NO_0-4-16-17 (30,) energy =    -480.7417398
C           2.4031002    -2.7368013    -1.0702065
H           2.9170645    -3.3270859    -0.2945059
H           2.9075220    -2.9129388    -2.0232509
H           1.3847944    -3.1252679    -1.1658515
N           2.3052924    -1.3227472    -0.7494633
H           1.4418100    -1.0721623    -0.2897348
C           5.2911845     1.2587750     0.7433117
H           6.0391789     1.9360624     1.1446649
C           3.9413766     1.4393092     1.0613027
H           3.6415539     2.2508892     1.7146223
C           2.9960934     0.5629870     0.5448040
O           1.6444982     0.6399963     0.8120801
C           1.1840282     1.6778307     1.6573156
H           0.1018213     1.5511971     1.7301566
H           1.4054882     2.6675160     1.2363723
H           1.6260629     1.6077416     2.6603319
C           3.3566864    -0.5154384    -0.3134615
C           4.7203625    -0.6760619    -0.6422592
C           5.2184112    -1.7082231    -1.6342315
H           4.6910927    -1.6333323    -2.5928132
H           5.1127669    -2.7403400    -1.2825925
H           6.2815569    -1.5438720    -1.8352245
C           5.6579285     0.2182566    -0.0978343
H           6.7040784     0.0875716    -0.3639287
24
335_C9H13NO_0-4-16-17 (45,) energy =    -480.7432884
C           2.4077253    -2.7401581    -0.9559379
H           2.8469838    -3.1992036    -0.0556769
H           2.9877004    -3.0680026    -1.8219744
H           1.3939405    -3.1336801    -1.0766785
N           2.3160710    -1.2858785    -0.8726032
H           1.4310276    -0.9850296    -0.4865120
C           5.2902245     1.2000609     0.8002729
H           6.0392537     1.8505423     1.2423964
C           3.9380190     1.3897075     1.1026209
H           3.6407488     2.1787127     1.7841746
C           2.9879620     0.5480911     0.5355210
O           1.6336224     0.6359704     0.7785940
C           1.1693171     1.6648546     1.6332687
H           0.0835258     1.5565328     1.6749107
H           1.4201939     2.6587202     1.2396444
H           1.5825300     1.5652967     2.6459935
C           3.3539810    -0.4969198    -0.3562435
C           4.7170455    -0.6587050    -0.6764092
C           5.1880063    -1.6549825    -1.7131450
H           4.5665332    -1.6100109    -2.6152120
H           5.1715016    -2.6920900    -1.3565942
H           6.2182409    -1.4311104    -2.0072571
C           5.6614084     0.1925150    -0.0793733
H           6.7096896     0.0616231    -0.3369356
24
335_C9H13NO_0-4-16-17 (60,) energy =    -480.7443704
C           2.3788780    -2.6921386    -0.8355016
H           2.5109939    -3.0192798     0.2089368
H           3.1681937    -3.1497689    -1.4352859
H           1.4236212    -3.0823549    -1.2003437
N           2.3641615    -1.2365136    -0.9920766
H           1.4663524    -0.8644887    -0.7043175
C           5.3249079     1.1716982     0.8201150
H           6.0749133     1.8012942     1.2904332
C           3.9731310     1.3591170     1.1248057
H           3.6793718     2.1241265     1.8346431
C           3.0194606     0.5438854     0.5218831
O           1.6651881     0.6343283     0.7569765
C           1.2010753     1.6514947     1.6264331
H           0.1137189     1.5546913     1.6513413
H           1.4689397     2.6502526     1.2571137
H           1.5987264     1.5260063     2.6424291
C           3.3887997    -0.4646255    -0.4053791
C           4.7498659    -0.6211044    -0.7281425
C           5.1983667    -1.5957058    -1.7916965
H           4.4823752    -1.6244106    -2.6206003
H           5.3027172    -2.6209422    -1.4122890
H           6.1739029    -1.3008150    -2.1916457
C           5.6991623     0.1973712    -0.0960647
H           6.7481103     0.0724641    -0.3538865
24
335_C9H13NO_0-4-16-17 (75,) energy =    -480.7447249
C           2.3218082    -2.6292321    -0.7187939
H           2.1726844    -2.7765721     0.3631971
H           3.2234052    -3.1728848    -1.0127802
H           1.4764544    -3.0771496    -1.2513780
N           2.4249855    -1.2178176    -1.1101653
H           1.5269519    -0.7704469    -0.9512403
C           5.3385284     1.1562999     0.8226591
H           6.0809705     1.7778193     1.3156565
C           3.9855835     1.3235851     1.1320912
H           3.6862499     2.0645557     1.8647407
C           3.0388318     0.5194905     0.4994977
O           1.6836703     0.5946951     0.7259870
C           1.2076416     1.5836886     1.6220833
H           0.1206835     1.4807131     1.6352234
H           1.4733461     2.5945093     1.2854156
H           1.5975771     1.4293753     2.6370235
C           3.4247628    -0.4512752    -0.4559004
C           4.7857333    -0.5890750    -0.7803591
C           5.2263448    -1.5600402    -1.8486297
H           4.4712434    -1.6306114    -2.6384272
H           5.3799707    -2.5732828    -1.4526230
H           6.1749410    -1.2424301    -2.2937817
C           5.7288043     0.2141874    -0.1216491
H           6.7803751     0.1055059    -0.3758406
24
335_C9H13NO_0-4-16-17 (90,) energy =    -480.7437959
C           2.2197739    -2.5543045    -0.5948091
H           1.8963685    -2.4973953     0.4565673
H           3.1203814    -3.1746312    -0.6407830
H           1.4382532    -3.0555056    -1.1758574
N           2.4913783    -1.2409827    -1.1999712
H           1.6187486    -0.7173179    -1.1974365
C           5.3428601     1.1533841     0.8061494
H           6.0736645     1.7783912     1.3124611
C           3.9880447     1.2849922     1.1230137
H           3.6766471     2.0041160     1.8721921
C           3.0571346     0.4761011     0.4700771
O           1.7013503     0.5221404     0.6912204
C           1.2063295     1.4711450     1.6205585
H           0.1217308     1.3458327     1.6302138
H           1.4510817     2.4979671     1.3181127
H           1.6002184     1.2906602     2.6295430
C           3.4659871    -0.4623012    -0.5049240
C           4.8270835    -0.5665272    -0.8341788
C           5.2803190    -1.5337167    -1.9001169
H           4.5433342    -1.5877048    -2.7069128
H           5.3961884    -2.5519486    -1.5038642
H           6.2489953    -1.2351341    -2.3139859
C           5.7545653     0.2413429    -0.1591081
H           6.8086653     0.1596268    -0.4121805
24
335_C9H13NO_0-4-16-17 (105,) energy =    -480.7419233
C           2.0851324    -2.4660587    -0.4757874
H           1.6438572    -2.2136792     0.4998239
H           2.9216849    -3.1525280    -0.3075591
H           1.3348661    -2.9931006    -1.0752826
N           2.5595363    -1.2957478    -1.2350665
H           1.7440092    -0.7115757    -1.4162050
C           5.3507825     1.1573878     0.7952878
H           6.0661891     1.7942502     1.3090029
C           3.9955462     1.2473796     1.1241501
H           3.6689629     1.9482153     1.8841025
C           3.0823309     0.4264917     0.4600394
O           1.7266016     0.4483173     0.6758450
C           1.2129205     1.3744597     1.6186347
H           0.1301187     1.2344821     1.6183039
H           1.4457814     2.4095289     1.3357763
H           1.6023172     1.1816590     2.6270449
C           3.5130830    -0.4929046    -0.5235468
C           4.8724600    -0.5490965    -0.8676509
C           5.3486163    -1.4982863    -1.9404828
H           4.6093500    -1.5787528    -2.7414012
H           5.4971946    -2.5113187    -1.5423870
H           6.3056203    -1.1685305    -2.3581226
C           5.7832239     0.2755117    -0.1884877
H           6.8374654     0.2288298    -0.4495753
24
335_C9H13NO_0-4-16-17 (120,) energy =    -480.7417678
C           1.8966314    -2.3294175    -0.3373737
H           1.3066338    -1.8329516     0.4332993
H           2.5853222    -3.0373329     0.1533083
H           1.2163183    -2.8966317    -0.9806927
N           2.5804045    -1.3259138    -1.1604087
H           2.9535603    -1.7629328    -1.9943049
C           5.4562590     1.2254972     0.5996814
H           6.1875780     1.8897054     1.0515024
C           4.1390775     1.2279746     1.0651036
H           3.8554776     1.8991781     1.8674570
C           3.1922638     0.3840097     0.4835521
O           1.8715634     0.3559155     0.8529618
C           1.4325788     1.2657598     1.8455703
H           0.3593929     1.0957227     1.9534099
H           1.6056305     2.3073659     1.5436864
H           1.9255389     1.0860741     2.8107810
C           3.5581770    -0.5027863    -0.5606812
C           4.8921795    -0.4974081    -1.0169865
C           5.3240927    -1.4190950    -2.1364230
H           4.8433736    -1.1693046    -3.0932490
H           5.0896898    -2.4700918    -1.9206788
H           6.4042376    -1.3512391    -2.2954586
C           5.8220104     0.3772252    -0.4377002
H           6.8463488     0.3735197    -0.8019123
24
335_C9H13NO_0-4-16-17 (135,) energy =    -480.7417484
C           1.7579480    -2.2402304    -0.3297743
H           1.0030774    -1.6323489     0.1664606
H           2.2831258    -2.8321349     0.4377691
H           1.2549369    -2.9321383    -1.0125205
N           2.6559599    -1.4002598    -1.1265205
H           3.0923983    -1.9463535    -1.8566146
C           5.4583998     1.2630939     0.5870362
H           6.1767543     1.9500673     1.0249250
C           4.1471251     1.2319803     1.0661199
H           3.8532588     1.9041352     1.8638805
C           3.2138423     0.3597401     0.5051396
O           1.8937161     0.3234154     0.8839505
C           1.4568271     1.2205799     1.8881359
H           0.3884422     1.0323831     2.0132889
H           1.6070725     2.2667312     1.5894806
H           1.9689451     1.0440398     2.8439020
C           3.5901416    -0.5376958    -0.5275773
C           4.9159936    -0.4826183    -1.0128027
C           5.3571014    -1.3930623    -2.1371608
H           4.8074341    -1.2007794    -3.0697642
H           5.2174342    -2.4555053    -1.8914845
H           6.4191477    -1.2485822    -2.3550486
C           5.8289276     0.4195209    -0.4523792
H           6.8454619     0.4437249    -0.8371737
24
335_C9H13NO_0-4-16-17 (150,) energy =    -480.7411920
C           1.6590216    -2.1734608    -0.4167122
H           0.8374605    -1.4868300    -0.2163208
H           1.9703127    -2.6227257     0.5388860
H           1.2918535    -2.9733569    -1.0674848
N           2.7488613    -1.5026097    -1.1239310
H           3.2301018    -2.1386610    -1.7423511
C           5.4695747     1.2837593     0.5229705
H           6.1723088     1.9994364     0.9393922
C           4.1664238     1.2174037     1.0194943
H           3.8624352     1.8900279     1.8130456
C           3.2518260     0.3073407     0.4889335
O           1.9401497     0.2365237     0.8984457
C           1.5074352     1.1086745     1.9249492
H           0.4516621     0.8804647     2.0866070
H           1.6079738     2.1625133     1.6317456
H           2.0597143     0.9437442     2.8603419
C           3.6376101    -0.5928584    -0.5382845
C           4.9547261    -0.4970962    -1.0472178
C           5.4009691    -1.4016470    -2.1730802
H           4.7951622    -1.2631028    -3.0797902
H           5.3407968    -2.4669099    -1.9033498
H           6.4413661    -1.1982418    -2.4419330
C           5.8482481     0.4366969    -0.5107631
H           6.8566031     0.4866578    -0.9142805
24
335_C9H13NO_0-4-16-17 (165,) energy =    -480.7404310
C           1.5763654    -2.0975428    -0.4996767
H           0.8109769    -1.3222291    -0.4745603
H           1.6852929    -2.5023657     0.5171468
H           1.2290680    -2.9033803    -1.1544513
N           2.8204673    -1.5908085    -1.0668077
H           3.3323276    -2.3032063    -1.5645337
C           5.4611359     1.3370884     0.4580898
H           6.1468198     2.0878055     0.8395548
C           4.1689082     1.2451410     0.9781237
H           3.8580243     1.9297984     1.7585820
C           3.2748905     0.2876051     0.4984645
O           1.9807505     0.1762667     0.9570917
C           1.5531986     1.0474839     1.9858353
H           0.5161229     0.7765627     2.1959390
H           1.5941642     2.0994919     1.6719275
H           2.1508769     0.9241837     2.8995613
C           3.6670167    -0.6263278    -0.5148709
C           4.9735660    -0.5041870    -1.0488148
C           5.4225172    -1.4247100    -2.1594819
H           4.7602153    -1.3633884    -3.0341430
H           5.4471931    -2.4805006    -1.8471865
H           6.4328603    -1.1677143    -2.4900024
C           5.8490523     0.4672934    -0.5530494
H           6.8481171     0.5344117    -0.9768298
24
335_C9H13NO_0-4-16-17 (180,) energy =    -480.7397935
C           1.5473524    -2.0679160    -0.5662358
H           0.7864895    -1.3201358    -0.8292839
H           1.4681569    -2.2670634     0.5034247
H           1.3204921    -2.9948462    -1.1035829
N           2.9034616    -1.6846284    -0.9250687
H           3.1776733    -1.9780264    -1.8493136
C           5.3752671     1.4173724     0.5279025
H           6.0238297     2.2057487     0.8981999
C           4.0937777     1.2610636     1.0596394
H           3.7541447     1.9343982     1.8380141
C           3.2466208     0.2559109     0.5928112
O           1.9698814     0.0675711     1.0761229
C           1.4938886     0.9432959     2.0791044
H           0.4744179     0.6195040     2.3004192
H           1.4744462     1.9863355     1.7340347
H           2.0981783     0.8820211     2.9946721
C           3.6732111    -0.6348216    -0.4275184
C           4.9811506    -0.4713877    -0.9473773
C           5.4861435    -1.4126788    -2.0148104
H           4.9230854    -1.3231034    -2.9573301
H           5.4134722    -2.4617384    -1.6970421
H           6.5337181    -1.2050666    -2.2508623
C           5.8057038     0.5523833    -0.4701940
H           6.8033861     0.6570465    -0.8896825
