22
249_C9H11NO_21-0-1-12 (-165,) energy =    -479.5679392
C           1.4967426    -1.8687353    -0.5221872
N           2.3066986    -0.8652317    -1.0296872
C           2.2654198    -0.5985113    -2.4684372
H           1.3205502    -0.9781381    -2.8563736
H           3.0911288    -1.0975925    -2.9928341
H           2.3411041     0.4786840    -2.6453323
C           5.5583022     0.8447300     1.0736262
H           6.3938430     1.2877611     1.6084049
C           4.4247387     1.6093262     0.7886713
H           4.3745423     2.6481931     1.1032185
C           3.3493148     1.0402444     0.1064536
H           2.4586250     1.6232279    -0.1108694
C           3.4018924    -0.2988025    -0.2988600
C           4.5448656    -1.0588660    -0.0232893
H           4.5889687    -2.0922303    -0.3563888
C           5.6154490    -0.4898219     0.6678419
H           6.4967755    -1.0880816     0.8825444
C           1.5611296    -2.1087106     0.9796241
H           1.6566216    -1.1817489     1.5517068
H           2.4172687    -2.7435500     1.2338951
H           0.6483832    -2.6334527     1.2667397
O           0.7513615    -2.5207289    -1.2426307
22
249_C9H11NO_21-0-1-12 (-150,) energy =    -479.5664642
C           1.2403650    -1.6506861    -0.1430954
N           2.6218832    -1.7546840    -0.2513911
C           3.2166620    -3.0323825     0.1580173
H           2.5671784    -3.8439503    -0.1705736
H           3.3288493    -3.0991184     1.2484219
H           4.2013542    -3.1290930    -0.3057394
C           5.1967003     1.5935221     0.0608966
H           5.8630925     2.4479123     0.1400740
C           4.2560102     1.3439530     1.0613609
H           4.1902415     2.0006154     1.9246375
C           3.4036067     0.2430014     0.9647774
H           2.6852580     0.0324351     1.7524382
C           3.4750422    -0.6062089    -0.1461756
C           4.4196301    -0.3527181    -1.1483323
H           4.4648141    -1.0130710    -2.0098233
C           5.2792450     0.7400786    -1.0419559
H           6.0076538     0.9306564    -1.8254267
C           0.6072304    -0.3545833    -0.6288292
H           0.4073961     0.3095793     0.2193758
H          -0.3546564    -0.6093665    -1.0801902
H           1.2262633     0.1861027    -1.3482748
O           0.5616744    -2.5672225     0.3004736
22
249_C9H11NO_21-0-1-12 (-135,) energy =    -479.5634669
C           1.2375353    -1.6479245    -0.0313307
N           2.5997318    -1.7719674    -0.3199720
C           3.2065406    -3.0482154     0.0907704
H           2.5577720    -3.8675504    -0.2215180
H           3.3381130    -3.1081630     1.1789872
H           4.1811696    -3.1435881    -0.3931736
C           5.2024627     1.5448733     0.1095235
H           5.8760618     2.3903360     0.2178949
C           4.2195274     1.3043099     1.0702703
H           4.1274587     1.9588919     1.9327430
C           3.3582863     0.2137066     0.9375151
H           2.6097355     0.0093399     1.6982978
C           3.4627867    -0.6331376    -0.1728025
C           4.4475275    -0.3863155    -1.1377997
H           4.5152338    -1.0414435    -2.0017487
C           5.3169855     0.6934906    -0.9925266
H           6.0773591     0.8775354    -1.7466836
C           0.5309008    -0.4303585    -0.6076578
H           0.1109134     0.1728515     0.2034325
H          -0.3105245    -0.7920926    -1.2077354
H           1.1738265     0.1958600    -1.2285640
O           0.6379828    -2.4852376     0.6261646
22
249_C9H11NO_21-0-1-12 (-120,) energy =    -479.5590458
C           1.2506229    -1.5740363     0.0450800
N           2.5842075    -1.7331312    -0.3864153
C           3.1935827    -3.0094144     0.0339456
H           2.5228564    -3.8296440    -0.2284838
H           3.3769924    -3.0447519     1.1154847
H           4.1415391    -3.1315501    -0.4951791
C           5.2536371     1.5202393     0.1408738
H           5.9439597     2.3486300     0.2733542
C           4.2784294     1.2602210     1.1042488
H           4.2090347     1.8826021     1.9923440
C           3.3948845     0.1913576     0.9412927
H           2.6519426    -0.0295399     1.7029701
C           3.4706344    -0.6126993    -0.2026962
C           4.4459335    -0.3451003    -1.1714825
H           4.4876666    -0.9670749    -2.0611358
C           5.3381758     0.7111781    -0.9954967
H           6.0920894     0.9111217    -1.7521713
C           0.4739265    -0.4660470    -0.6437024
H          -0.2182028    -0.0054388     0.0652475
H          -0.1222656    -0.9201148    -1.4450734
H           1.1186681     0.2929276    -1.0913437
O           0.7503305    -2.2891914     0.8965246
22
249_C9H11NO_21-0-1-12 (-105,) energy =    -479.5535868
C           1.2763886    -1.5071621     0.0785859
N           2.5847112    -1.6922449    -0.4558267
C           3.1860628    -2.9801495    -0.0462936
H           2.5002219    -3.7920713    -0.2999965
H           3.3938124    -3.0216794     1.0302492
H           4.1188086    -3.1158832    -0.5986058
C           5.3205121     1.4954053     0.1610714
H           6.0274742     2.3064147     0.3121723
C           4.3340408     1.2384567     1.1130218
H           4.2718058     1.8457748     2.0120858
C           3.4281993     0.1916383     0.9265924
H           2.6789414    -0.0255642     1.6822929
C           3.4935125    -0.5935681    -0.2312908
C           4.4797415    -0.3271262    -1.1903554
H           4.5117388    -0.9315430    -2.0924399
C           5.3938988     0.7049799    -0.9894352
H           6.1559060     0.9024757    -1.7386827
C           0.4201497    -0.5317845    -0.7029893
H          -0.3854350    -0.1521497    -0.0713756
H          -0.0222356    -1.0608546    -1.5565278
H           1.0130607     0.2942067    -1.1052655
O           0.8893638    -2.0723804     1.0843064
22
249_C9H11NO_21-0-1-12 (-90,) energy =    -479.5477044
C           1.2900580    -1.4485211     0.1030206
N           2.5864394    -1.6443082    -0.4957742
C           3.1667100    -2.9527607    -0.1122354
H           2.4710096    -3.7488309    -0.3930138
H           3.3708008    -3.0249972     0.9634527
H           4.0984185    -3.0916748    -0.6654994
C           5.3921462     1.4734005     0.1922981
H           6.1168592     2.2662717     0.3552813
C           4.3980728     1.2253669     1.1379282
H           4.3473308     1.8219210     2.0449997
C           3.4675473     0.2021854     0.9379604
H           2.7142454    -0.0031567     1.6913912
C           3.5165222    -0.5700248    -0.2297719
C           4.5103769    -0.3097543    -1.1843155
H           4.5278119    -0.9005710    -2.0957872
C           5.4483832     0.6968899    -0.9688072
H           6.2149434     0.8868537    -1.7154585
C           0.3400251    -0.6595361    -0.7683670
H          -0.5369384    -0.3526595    -0.1952731
H           0.0251256    -1.2815943    -1.6150484
H           0.8475240     0.2147590    -1.1895727
O           1.0101178    -1.8396335     1.2179951
22
249_C9H11NO_21-0-1-12 (-75,) energy =    -479.5480523
C           1.2626444    -1.2159804     0.4266875
N           2.6344242    -1.5901208     0.2318287
C           2.8650192    -2.6681824    -0.7284853
H           2.1561872    -3.4765114    -0.5347940
H           3.8702228    -3.0658060    -0.5659855
H           2.7776119    -2.3674154    -1.7841782
C           5.4514048     1.5929609     0.3064699
H           6.1716820     2.4055405     0.3336467
C           4.4344002     1.5118830     1.2617070
H           4.3610685     2.2630596     2.0439337
C           3.5175152     0.4657136     1.2426102
H           2.7484519     0.3928259     2.0018812
C           3.5851106    -0.5205951     0.2403310
C           4.6080821    -0.4386212    -0.7176640
H           4.6933272    -1.1773301    -1.5058204
C           5.5321126     0.6086604    -0.6749581
H           6.3157138     0.6496823    -1.4272972
C           0.3393816    -1.3120975    -0.7779994
H          -0.6081729    -0.8353324    -0.5227723
H           0.1407945    -2.3561047    -1.0448235
H           0.7802153    -0.8262719    -1.6558506
O           0.8451344    -0.9012686     1.5210652
22
249_C9H11NO_21-0-1-12 (-60,) energy =    -479.5531076
C           1.2330649    -1.1123494     0.3352297
N           2.5909315    -1.4799221     0.1383549
C           2.8517512    -2.5856071    -0.7825651
H           2.1376584    -3.3891364    -0.5939590
H           3.8512104    -2.9768172    -0.5771186
H           2.7980276    -2.3119773    -1.8469688
C           5.5411294     1.5758539     0.3521509
H           6.2955543     2.3551784     0.4110374
C           4.5124961     1.5102791     1.2947592
H           4.4635636     2.2399257     2.0989526
C           3.5500960     0.5058761     1.2371809
H           2.7665583     0.4470402     1.9806639
C           3.5853600    -0.4496285     0.2051370
C           4.6213572    -0.3837588    -0.7404063
H           4.6803660    -1.0991670    -1.5520950
C           5.5889582     0.6200059    -0.6596756
H           6.3799135     0.6503099    -1.4047279
C           0.2387758    -1.4975259    -0.7520357
H          -0.6818546    -0.9416792    -0.5679584
H           0.0025061    -2.5672208    -0.7095885
H           0.6130035    -1.2785346    -1.7574846
O           0.8515078    -0.5965520     1.3692958
22
249_C9H11NO_21-0-1-12 (-45,) energy =    -479.5580106
C           1.2068862    -1.0195856     0.2328810
N           2.5541252    -1.3851326     0.0459517
C           2.8493966    -2.5325228    -0.8127400
H           2.1393296    -3.3348755    -0.6079101
H           3.8477135    -2.9009882    -0.5658135
H           2.8184409    -2.3066902    -1.8885354
C           5.6154824     1.5420503     0.4155367
H           6.4001402     2.2872753     0.5108827
C           4.5821248     1.4757921     1.3516927
H           4.5593541     2.1702368     2.1875507
C           3.5781725     0.5153153     1.2466961
H           2.7857709     0.4622342     1.9792641
C           3.5813289    -0.3928424     0.1734496
C           4.6224189    -0.3257022    -0.7667035
H           4.6524628    -1.0049709    -1.6108602
C           5.6288737     0.6327965    -0.6402236
H           6.4223627     0.6665798    -1.3823252
C           0.1801718    -1.6409030    -0.7066327
H          -0.7456262    -1.0757370    -0.5899448
H          -0.0239549    -2.6829988    -0.4328255
H           0.4946047    -1.6255608    -1.7550602
O           0.8434613    -0.3139090     1.1590473
22
249_C9H11NO_21-0-1-12 (-30,) energy =    -479.5618553
C           1.1824171    -0.9220124     0.1098575
N           2.5210082    -1.2998868    -0.0476780
C           2.8493126    -2.4980519    -0.8219874
H           2.1549575    -3.3020699    -0.5740467
H           3.8530159    -2.8263596    -0.5440445
H           2.8235006    -2.3413324    -1.9097730
C           5.6605443     1.5127622     0.4776922
H           6.4674389     2.2275932     0.6125824
C           4.6241110     1.4309763     1.4089953
H           4.6218066     2.0821350     2.2792018
C           3.5885200     0.5115178     1.2511214
H           2.7904409     0.4521783     1.9766655
C           3.5692298    -0.3390341     0.1336396
C           4.6118375    -0.2549671    -0.8022771
H           4.6155859    -0.8914222    -1.6805974
C           5.6484457     0.6620533    -0.6265274
H           6.4439796     0.7114397    -1.3654558
C           0.1411463    -1.7365108    -0.6494097
H          -0.8041844    -1.1982468    -0.5706830
H           0.0085728    -2.7271283    -0.1976801
H           0.3949275    -1.8815792    -1.7044797
O           0.8332147    -0.0338312     0.8718039
22
249_C9H11NO_21-0-1-12 (-15,) energy =    -479.5641564
C           1.1695824    -0.8671617    -0.0132993
N           2.5013868    -1.2492737    -0.1661443
C           2.8492358    -2.4903496    -0.8602388
H           2.1644655    -3.2890148    -0.5713590
H           3.8557368    -2.7881630    -0.5598263
H           2.8272387    -2.3953286    -1.9550019
C           5.6896781     1.4620730     0.5354056
H           6.5118933     2.1487338     0.7164490
C           4.6314748     1.3711001     1.4416809
H           4.6282260     1.9868036     2.3372559
C           3.5746497     0.4895869     1.2222847
H           2.7588148     0.4265116     1.9284696
C           3.5599374    -0.3141356     0.0720187
C           4.6215560    -0.2190993    -0.8394615
H           4.6216293    -0.8205586    -1.7428910
C           5.6791250     0.6602129    -0.6048835
H           6.4914928     0.7195262    -1.3244277
C           0.1145697    -1.8148152    -0.5730041
H          -0.8479659    -1.3108421    -0.4800232
H           0.0735957    -2.7499334    -0.0015094
H           0.2897256    -2.0733080    -1.6227689
O           0.8382592     0.1538209     0.5707419
22
249_C9H11NO_21-0-1-12 (0,) energy =    -479.5645156
C           1.1823412    -0.8049341    -0.0836342
N           2.5065936    -1.1758364    -0.2912254
C           2.8534822    -2.4466036    -0.9304026
H           2.1654137    -3.2331282    -0.6176395
H           3.8582051    -2.7367951    -0.6168822
H           2.8351792    -2.3885121    -2.0274858
C           5.7483713     1.4123319     0.5929075
H           6.5860280     2.0650244     0.8222047
C           4.6575181     1.3312460     1.4614431
H           4.6444570     1.9204135     2.3745983
C           3.5796543     0.4949499     1.1799795
H           2.7377645     0.4436442     1.8568870
C           3.5777174    -0.2746074     0.0067665
C           4.6699071    -0.1871068    -0.8675605
H           4.6762392    -0.7607557    -1.7892594
C           5.7487892     0.6472270    -0.5720637
H           6.5857816     0.7007727    -1.2632391
C           0.1143745    -1.8320640    -0.4434760
H          -0.8527742    -1.3539494    -0.2856120
H           0.1754411    -2.7216481     0.1948250
H           0.1854167    -2.1638287    -1.4850792
O           0.8666758     0.2910734     0.3566487
22
249_C9H11NO_21-0-1-12 (15,) energy =    -479.5641564
C           1.3733678    -1.1829259     0.3782968
N           2.4622801    -0.9894233    -0.4701818
C           2.6467715    -1.8292448    -1.6549569
H           1.6903318    -1.9944039    -2.1531289
H           3.0914193    -2.8082219    -1.4271187
H           3.3022134    -1.3069071    -2.3546289
C           5.7871520     1.3824638     0.6817572
H           6.6404351     1.9912261     0.9674635
C           4.4866206     1.8409930     0.9003880
H           4.3224469     2.8141135     1.3556243
C           3.3847385     1.0711378     0.5326471
H           2.3812905     1.4331529     0.7067160
C           3.5752128    -0.1881789    -0.0564927
C           4.8820384    -0.6492480    -0.2721136
H           5.0508252    -1.6269023    -0.7121612
C           5.9779108     0.1340440     0.0914644
H           6.9824593    -0.2422931    -0.0830794
C           0.3870292    -2.2789696    -0.0092392
H          -0.3215105    -2.3757193     0.8139972
H           0.8728729    -3.2444517    -0.1861786
H          -0.1689717    -2.0140220    -0.9166489
O           1.1775435    -0.4949031     1.3690406
22
249_C9H11NO_21-0-1-12 (30,) energy =    -479.5618552
C           1.3253558    -1.0816627     0.2962000
N           2.4232608    -0.8918825    -0.5511215
C           2.6350659    -1.8025049    -1.6775688
H           1.6844587    -2.0104881    -2.1706395
H           3.0932929    -2.7598111    -1.3910382
H           3.2867623    -1.3110656    -2.4029904
C           5.8098924     1.3317900     0.7254302
H           6.6778942     1.9009712     1.0461494
C           4.5215166     1.8235079     0.9410747
H           4.3804866     2.7842128     1.4293638
C           3.4008201     1.1063357     0.5257200
H           2.4064408     1.4933512     0.6939096
C           3.5583934    -0.1382598    -0.1057450
C           4.8546431    -0.6316381    -0.3211856
H           5.0051293    -1.5953734    -0.7956290
C           5.9682809     0.1015637     0.0893832
H           6.9625033    -0.3012972    -0.0854187
C           0.4714484    -2.3209739     0.0530607
H          -0.2051496    -2.4138927     0.9034498
H           1.0626034    -3.2368881    -0.0482803
H          -0.1342755    -2.2112942    -0.8546907
O           1.0022291    -0.2692581     1.1488190
22
249_C9H11NO_21-0-1-12 (45,) energy =    -479.5580104
C           1.2601319    -0.9864243     0.1944345
N           2.3809462    -0.8143579    -0.6407842
C           2.6146997    -1.7966025    -1.6998748
H           1.6685329    -2.0471504    -2.1814633
H           3.0851199    -2.7275486    -1.3515665
H           3.2621255    -1.3437053    -2.4542505
C           5.7958982     1.2699821     0.7979547
H           6.6692399     1.8036249     1.1621446
C           4.5128056     1.7704653     1.0255852
H           4.3803430     2.7034142     1.5673329
C           3.3863367     1.1015043     0.5512605
H           2.3959180     1.4981041     0.7220530
C           3.5286255    -0.1091168    -0.1492346
C           4.8202660    -0.6104132    -0.3785222
H           4.9665614    -1.5446688    -0.9083163
C           5.9398981     0.0782878     0.0903287
H           6.9290270    -0.3315215    -0.0972099
C           0.5515479    -2.3347045     0.1400657
H          -0.1156116    -2.3821270     1.0019083
H           1.2433231    -3.1828732     0.1591765
H          -0.0606353    -2.4214772    -0.7656437
O           0.8017883    -0.0789650     0.8684819
22
249_C9H11NO_21-0-1-12 (60,) energy =    -479.5531076
C           1.2200335    -0.9100516     0.0757204
N           2.3528676    -0.7470229    -0.7656106
C           2.5938494    -1.7887359    -1.7633714
H           1.6499884    -2.0564862    -2.2414953
H           3.0550913    -2.7035574    -1.3620422
H           3.2512570    -1.3811638    -2.5352859
C           5.7765394     1.1956261     0.8452867
H           6.6501403     1.6950770     1.2543992
C           4.4954004     1.7042167     1.0708890
H           4.3654296     2.6103526     1.6569864
C           3.3713473     1.0797024     0.5370826
H           2.3826486     1.4881357     0.6977684
C           3.5089927    -0.0969925    -0.2217378
C           4.7976167    -0.6060333    -0.4496960
H           4.9445969    -1.5120040    -1.0256670
C           5.9165532     0.0412968     0.0787799
H           6.9032308    -0.3736370    -0.1106828
C           0.6721025    -2.3206843     0.2460175
H          -0.0199164    -2.3053165     1.0893820
H           1.4623379    -3.0573900     0.4242097
H           0.1149165    -2.6376480    -0.6433303
O           0.6442464     0.0421982     0.5682813
22
249_C9H11NO_21-0-1-12 (75,) energy =    -479.5480523
C           1.1846453    -0.8671909    -0.1115332
N           2.3384784    -0.6953118    -0.9469172
C           2.6025952    -1.7780034    -1.8928168
H           1.6693855    -2.0537524    -2.3894277
H           3.0431639    -2.6816708    -1.4432515
H           3.2868575    -1.4068304    -2.6602204
C           5.6957165     1.1697553     0.8731344
H           6.5503695     1.6540673     1.3366152
C           4.4060401     1.6755915     1.0583181
H           4.2507851     2.5631776     1.6662590
C           3.3077870     1.0704592     0.4558149
H           2.3140219     1.4832384     0.5797567
C           3.4763020    -0.0819572    -0.3350879
C           4.7726400    -0.5882183    -0.5209424
H           4.9437655    -1.4742927    -1.1208613
C           5.8678883     0.0408129     0.0764843
H           6.8618189    -0.3694644    -0.0832511
C           0.8442148    -2.2857335     0.3176010
H           0.0637880    -2.2370088     1.0784486
H           1.7253957    -2.8020833     0.7146704
H           0.4686992    -2.8765680    -0.5255040
O           0.4744996     0.0715890     0.1809211
22
249_C9H11NO_21-0-1-12 (90,) energy =    -479.5477044
C           1.2473255    -1.1733755    -0.2770982
N           2.5453820    -1.3500284    -0.8781865
C           2.4931844    -1.1492978    -2.3454769
H           1.7560189    -1.8343073    -2.7743206
H           3.4750635    -1.3878960    -2.7607566
H           2.2237019    -0.1221357    -2.6216652
C           5.6643092     0.9847827     0.8208111
H           6.4717965     1.5713545     1.2501250
C           4.3543853     1.4608922     0.8573709
H           4.1368389     2.4238999     1.3118158
C           3.3121640     0.7150565     0.3003518
H           2.2996369     1.1049525     0.3076208
C           3.5769264    -0.5310209    -0.2822651
C           4.8939625    -1.0121155    -0.3064130
H           5.0858959    -1.9884458    -0.7423841
C           5.9315180    -0.2540293     0.2306764
H           6.9481174    -0.6374144     0.2034335
C           1.0115133    -2.0712961     0.9155972
H           0.1209074    -1.7539228     1.4612816
H           1.8864264    -2.0661595     1.5742795
H           0.8809502    -3.1040769     0.5701945
O           0.4448309    -0.3489013    -0.6653676
22
249_C9H11NO_21-0-1-12 (105,) energy =    -479.5535868
C           1.2270207    -1.2150629    -0.3225783
N           2.5133338    -1.3264339    -0.9263650
C           2.4754445    -1.0900233    -2.3860595
H           1.7313885    -1.7514175    -2.8365004
H           3.4588718    -1.3264311    -2.7989400
H           2.2180763    -0.0530713    -2.6357010
C           5.6213772     0.9388257     0.8722248
H           6.4238875     1.5133569     1.3263771
C           4.3128198     1.4209338     0.8968865
H           4.0917310     2.3757065     1.3665175
C           3.2793551     0.6893543     0.3070776
H           2.2657872     1.0796074     0.3016054
C           3.5503179    -0.5458560    -0.2948729
C           4.8643969    -1.0320818    -0.3098747
H           5.0614026    -1.9986325    -0.7649220
C           5.8948128    -0.2883948     0.2615010
H           6.9107954    -0.6737237     0.2432552
C           1.0945864    -1.9530297     0.9939442
H           0.2651474    -1.5406690     1.5718833
H           2.0211340    -1.9154505     1.5733664
H           0.8850564    -3.0093613     0.7832112
O           0.3211922    -0.5694359    -0.8159089
22
249_C9H11NO_21-0-1-12 (120,) energy =    -479.5590458
C           1.1973177    -1.2711009    -0.3698655
N           2.4729364    -1.2738985    -0.9721439
C           2.4413008    -1.0220212    -2.4255865
H           1.7112112    -1.6886066    -2.8883527
H           3.4329472    -1.2288869    -2.8346782
H           2.1627934     0.0132081    -2.6608493
C           5.5791028     0.9052030     0.9229971
H           6.3799051     1.4618693     1.4017103
C           4.2748479     1.4005723     0.9391298
H           4.0565120     2.3469164     1.4266233
C           3.2446424     0.6919004     0.3177312
H           2.2330517     1.0887025     0.3057255
C           3.5133507    -0.5321339    -0.3071640
C           4.8221555    -1.0304529    -0.3157237
H           5.0172805    -1.9870529    -0.7920856
C           5.8508751    -0.3103373     0.2892246
H           6.8635337    -0.7044172     0.2772352
C           1.1380393    -1.8647768     1.0263270
H           0.4013044    -1.3244887     1.6255955
H           2.1066896    -1.8690058     1.5301292
H           0.7978790    -2.9040388     0.9366394
O           0.2080276    -0.8411225    -0.9383037
22
249_C9H11NO_21-0-1-12 (135,) energy =    -479.5634669
C           1.1932601    -1.3639653    -0.4231866
N           2.4481427    -1.2183728    -1.0218129
C           2.4181067    -0.9760137    -2.4730520
H           1.7269700    -1.6806636    -2.9373078
H           3.4232889    -1.1262086    -2.8733642
H           2.0844997     0.0422260    -2.7118304
C           5.5546654     0.8663204     0.9690870
H           6.3557537     1.3999852     1.4728201
C           4.2507517     1.3617893     1.0063288
H           4.0328129     2.2857160     1.5351724
C           3.2212527     0.6822770     0.3527457
H           2.2102525     1.0806914     0.3581436
C           3.4883967    -0.5127564    -0.3265187
C           4.7974784    -1.0099052    -0.3581960
H           4.9947407    -1.9431920    -0.8780501
C           5.8258272    -0.3191097     0.2808215
H           6.8381859    -0.7128891     0.2514796
C           1.1840619    -1.8044761     1.0327729
H           0.6866473    -1.0465505     1.6461625
H           2.1785227    -2.0012550     1.4369435
H           0.5806587    -2.7159429     1.0965986
O           0.1568488    -1.1740748    -1.0417730
22
249_C9H11NO_21-0-1-12 (150,) energy =    -479.5664642
C           1.2389208    -1.4655538    -0.4130855
N           2.4456126    -1.1443140    -1.0228684
C           2.4052521    -0.9074481    -2.4706792
H           1.7223153    -1.6251811    -2.9255418
H           3.4107765    -1.0363602    -2.8785323
H           2.0519164     0.1047736    -2.7085514
C           5.5838318     0.8326810     1.0218235
H           6.3929390     1.3397243     1.5400736
C           4.2980518     1.3756519     1.0298086
H           4.1031969     2.3093400     1.5504196
C           3.2587584     0.7292768     0.3589259
H           2.2613942     1.1603324     0.3438128
C           3.4968077    -0.4776231    -0.3098068
C           4.7878385    -1.0198684    -0.3154814
H           4.9630327    -1.9595330    -0.8318262
C           5.8269997    -0.3643373     0.3439740
H           6.8252600    -0.7934585     0.3364209
C           1.2818400    -1.7796161     1.0756060
H           0.9791542    -0.9010681     1.6561507
H           2.2680973    -2.0958213     1.4226736
H           0.5484992    -2.5671139     1.2651485
O           0.1939164    -1.5164419    -1.0477429
22
249_C9H11NO_21-0-1-12 (165,) energy =    -479.5679377
C           1.3527065    -1.6099460    -0.4871236
N           2.4877667    -1.0740470    -1.0744746
C           2.4802685    -0.8428241    -2.5198693
H           1.7207706    -1.4869557    -2.9622332
H           3.4647336    -1.0788869    -2.9351715
H           2.2421269     0.2024249    -2.7579930
C           5.6000611     0.8191642     1.0819300
H           6.4021898     1.3059326     1.6297009
C           4.3382111     1.4126280     1.0140918
H           4.1557319     2.3642089     1.5059678
C           3.3082169     0.7906609     0.3071034
H           2.3278896     1.2541763     0.2372040
C           3.5311537    -0.4388127    -0.3243183
C           4.7986338    -1.0294557    -0.2573678
H           4.9631219    -1.9837217    -0.7500527
C           5.8290014    -0.4011839     0.4423558
H           6.8089455    -0.8679230     0.4929727
C           1.4021144    -1.8399515     1.0167666
H           1.1783097    -0.9131462     1.5569077
H           2.3788969    -2.1929714     1.3585869
H           0.6321204    -2.5734740     1.2615766
O           0.3625049    -1.9004973    -1.1464797
22
249_C9H11NO_21-0-1-12 (180,) energy =    -479.5683128
C           1.4019588    -1.7290311    -0.4843222
N           2.4091607    -0.9745473    -1.0619604
C           2.4120992    -0.7715489    -2.5098950
H           1.5292005    -1.2664231    -2.9140304
H           3.3144218    -1.2012067    -2.9617507
H           2.3807669     0.2981198    -2.7483218
C           5.5864783     0.8279926     1.0757055
H           6.4044993     1.2930893     1.6188304
C           4.3592894     1.4841890     0.9621174
H           4.2198649     2.4619078     1.4152530
C           3.3084815     0.8884757     0.2631206
H           2.3517279     1.3935338     0.1623309
C           3.4770069    -0.3733899    -0.3182869
C           4.7106180    -1.0261072    -0.2079274
H           4.8349035    -2.0035505    -0.6660409
C           5.7608878    -0.4269870     0.4883604
H           6.7142227    -0.9413667     0.5737782
C           1.4647179    -1.9041772     1.0262567
H           1.3029580    -0.9514274     1.5421248
H           2.4349974    -2.2893758     1.3548059
H           0.6764193    -2.6023174     1.3102639
O           0.5040710    -2.2284200    -1.1511729
