22
249_C9H11NO_0-1-12-10 (-165,) energy =    -479.5630852
C           1.5610203    -0.9958465    -1.2796870
N           2.4477223    -1.1191936    -0.2114403
C           2.2478343    -2.1605607     0.7991151
H           1.2370794    -2.5541465     0.7454640
H           2.3885126    -1.7375951     1.7977085
H           2.9489267    -2.9954408     0.6722139
C           5.8315243     1.3852868     0.4650320
H           6.6927952     2.0202294     0.6523903
C           5.6969753     0.1611820     1.1146853
H           6.4556222    -0.1752425     1.8165927
C           4.5903714    -0.6533969     0.8756927
H           4.5385376    -1.6044023     1.3906258
C           3.5857579    -0.2663282    -0.0317234
C           3.7262823     0.9754805    -0.6825396
H           2.9744595     1.2986138    -1.3837115
C           4.8371601     1.7781728    -0.4307901
H           4.9163397     2.7313280    -0.9473623
C           0.4081646    -1.9949763    -1.3658287
H          -0.1048030    -1.7884066    -2.3054816
H          -0.3083790    -1.8706807    -0.5453928
H           0.7462415    -3.0366310    -1.3657413
O           1.6704727    -0.1421921    -2.1491241
22
249_C9H11NO_0-1-12-10 (-150,) energy =    -479.5642406
C           1.6339890    -1.0717770    -1.3267737
N           2.4162505    -1.1066484    -0.1758607
C           2.1390952    -2.0710367     0.8912109
H           1.0752930    -2.3010366     0.9287025
H           2.4189962    -1.6318932     1.8511844
H           2.6918319    -3.0117510     0.7641057
C           5.8136390     1.3701593     0.4479839
H           6.6797698     2.0023227     0.6221998
C           5.7484680     0.0919261     0.9986436
H           6.5666258    -0.2869624     1.6055322
C           4.6363662    -0.7193408     0.7732736
H           4.6223766    -1.7176246     1.1969898
C           3.5634983    -0.2659966    -0.0119520
C           3.6298441     1.0265360    -0.5606942
H           2.8174592     1.3931837    -1.1696191
C           4.7480941     1.8253583    -0.3302061
H           4.7780679     2.8217370    -0.7634478
C           0.4787297    -2.0649552    -1.4140111
H           0.0608552    -1.9711397    -2.4167518
H          -0.3092789    -1.8364363    -0.6863541
H           0.7954857    -3.1005816    -1.2512607
O           1.8416479    -0.2963343    -2.2493212
22
249_C9H11NO_0-1-12-10 (-135,) energy =    -479.5646076
C           1.7256955    -1.1234039    -1.3709869
N           2.3836287    -1.0629517    -0.1464081
C           2.0452613    -1.9768641     0.9459504
H           0.9646503    -2.1163669     1.0059632
H           2.3785282    -1.5364792     1.8876287
H           2.5153856    -2.9643960     0.8389273
C           5.8172736     1.3596868     0.4232677
H           6.6940766     1.9817828     0.5798592
C           5.7933322     0.0456881     0.8879774
H           6.6539545    -0.3683346     1.4066932
C           4.6683182    -0.7538314     0.6817592
H           4.6723140    -1.7817385     1.0312709
C           3.5457815    -0.2426833     0.0162231
C           3.5704041     1.0801985    -0.4491608
H           2.7123030     1.4799245    -0.9724271
C           4.7020317     1.8672822    -0.2470099
H           4.7066781     2.8906950    -0.6126522
C           0.5680046    -2.1093678    -1.4794717
H           0.2246329    -2.0860979    -2.5141045
H          -0.2659897    -1.8258209    -0.8263080
H           0.8610909    -3.1323871    -1.2195139
O           2.0391072    -0.4230130    -2.3225077
22
249_C9H11NO_0-1-12-10 (-120,) energy =    -479.5639709
C           1.8244192    -1.1755729    -1.4024182
N           2.3676344    -1.0153254    -0.1329243
C           1.9633253    -1.8555955     0.9951202
H           0.8761834    -1.9572147     1.0276833
H           2.2832792    -1.3724906     1.9204284
H           2.4026017    -2.8627123     0.9611068
C           5.8402373     1.3522697     0.3897216
H           6.7282580     1.9621683     0.5308820
C           5.8506640     0.0038005     0.7457042
H           6.7488224    -0.4457481     1.1607558
C           4.7119366    -0.7810625     0.5569669
H           4.7308771    -1.8357201     0.8168492
C           3.5459595    -0.2145015     0.0303467
C           3.5371390     1.1376675    -0.3309498
H           2.6378867     1.5690128    -0.7549450
C           4.6815613     1.9125104    -0.1536269
H           4.6655462     2.9613061    -0.4376176
C           0.6617779    -2.1526396    -1.5283465
H           0.3896744    -2.1976585    -2.5832957
H          -0.2093759    -1.8184193    -0.9523866
H           0.9231459    -3.1581937    -1.1801930
O           2.2372106    -0.5556391    -2.3712276
22
249_C9H11NO_0-1-12-10 (-105,) energy =    -479.5629877
C           1.9000578    -1.2856080    -1.4183046
N           2.3495039    -1.0123198    -0.1348892
C           1.8556924    -1.7053327     1.0543226
H           0.7805262    -1.8799916     0.9790501
H           2.0333554    -1.0728401     1.9275212
H           2.3521400    -2.6718580     1.2236935
C           5.8401419     1.3291925     0.3721552
H           6.7333934     1.9323171     0.5099836
C           5.8902350    -0.0510626     0.5715698
H           6.8229198    -0.5284181     0.8600026
C           4.7446763    -0.8268822     0.3878308
H           4.7851237    -1.9041407     0.5240432
C           3.5396335    -0.2208420     0.0210769
C           3.4904696     1.1608633    -0.1827366
H           2.5532662     1.6188178    -0.4821198
C           4.6395048     1.9315438    -0.0105868
H           4.5961482     3.0049595    -0.1739261
C           0.7143601    -2.2350491    -1.5429958
H           0.5189991    -2.3721023    -2.6070293
H          -0.1844115    -1.8233727    -1.0686431
H           0.9143414    -3.2104279    -1.0852185
O           2.4140050    -0.7766546    -2.4035750
22
249_C9H11NO_0-1-12-10 (-90,) energy =    -479.5626839
C           1.5891853    -1.5957353     0.5781850
N           2.4141470    -1.0904138    -0.4110869
C           2.3097401    -1.3874483    -1.8362973
H           1.3620291    -1.8770443    -2.0594084
H           3.1262709    -2.0410000    -2.1726386
H           2.3601011    -0.4586706    -2.4158856
C           5.7444759     1.2976896     0.6474099
H           6.6017682     1.9124024     0.9080460
C           4.4966797     1.8890761     0.4404343
H           4.3792140     2.9645702     0.5419009
C           3.3953538     1.1008970     0.1055295
H           2.4185054     1.5488967    -0.0519374
C           3.5390077    -0.2831351    -0.0177460
C           4.7869743    -0.8757105     0.1905732
H           4.8861430    -1.9539578     0.1015016
C           5.8877214    -0.0855131     0.5232491
H           6.8554542    -0.5509730     0.6895553
C           0.4305645    -2.4847310     0.1391158
H          -0.0966805    -2.7935318     1.0423308
H           0.7748315    -3.3775759    -0.3950555
H          -0.2700300    -1.9521119    -0.5144022
O           1.7755220    -1.3346862     1.7582982
22
249_C9H11NO_0-1-12-10 (-75,) energy =    -479.5630752
C           1.4690515    -1.4019122     0.6718104
N           2.3536347    -1.0001670    -0.3180869
C           2.3607073    -1.5682874    -1.6656363
H           1.3403490    -1.7263599    -2.0212074
H           2.8993981    -2.5250806    -1.7248241
H           2.8464965    -0.8602496    -2.3411369
C           5.6996631     1.3959210     0.6753275
H           6.5590717     2.0156179     0.9162150
C           4.4148761     1.9440156     0.6856579
H           4.2715929     2.9920215     0.9345771
C           3.3110228     1.1534710     0.3695759
H           2.3092366     1.5705470     0.3725483
C           3.4857907    -0.1979995     0.0579656
C           4.7705897    -0.7485007     0.0515756
H           4.9035882    -1.8010946    -0.1829836
C           5.8750165     0.0490596     0.3557776
H           6.8708226    -0.3860092     0.3496684
C           0.3552585    -2.3535940     0.2519851
H          -0.2188275    -2.5965774     1.1466820
H           0.7446110    -3.2786190    -0.1881171
H          -0.3142573    -1.8920895    -0.4835745
O           1.5623465    -0.9990649     1.8221008
22
249_C9H11NO_0-1-12-10 (-60,) energy =    -479.5640767
C           1.4263443    -1.3295749     0.4829068
N           2.4227409    -1.0450911    -0.4435356
C           2.5129309    -1.7438693    -1.7261138
H           1.5253754    -1.8318815    -2.1841164
H           2.9427436    -2.7517496    -1.6379869
H           3.1440331    -1.1585879    -2.3978205
C           5.7583195     1.3354534     0.6264029
H           6.6143565     1.9516994     0.8869643
C           4.4617360     1.8363671     0.7675221
H           4.3056553     2.8464031     1.1368240
C           3.3599388     1.0545991     0.4270637
H           2.3533754     1.4411864     0.5350706
C           3.5473976    -0.2508573    -0.0431208
C           4.8455608    -0.7544160    -0.1811472
H           4.9976262    -1.7692064    -0.5377387
C           5.9458383     0.0389232     0.1483902
H           6.9490711    -0.3637846     0.0370405
C           0.3300821    -2.2888447     0.0354525
H          -0.3336375    -2.4412242     0.8870660
H           0.7300018    -3.2565292    -0.2875696
H          -0.2522014    -1.8760245    -0.7969261
O           1.4105307    -0.8274681     1.5970749
22
249_C9H11NO_0-1-12-10 (-45,) energy =    -479.5646217
C           1.3590149    -1.2504264     0.4423799
N           2.4400329    -1.0766703    -0.4163894
C           2.5719371    -1.8663372    -1.6421128
H           1.5996627    -1.9930624    -2.1205324
H           3.0020326    -2.8619225    -1.4649318
H           3.2195766    -1.3294692    -2.3379278
C           5.7595266     1.3566147     0.6095324
H           6.6116698     1.9819379     0.8607730
C           4.4596502     1.7933065     0.8743767
H           4.2954111     2.7656036     1.3312991
C           3.3594666     1.0015976     0.5522923
H           2.3569818     1.3470064     0.7645284
C           3.5508367    -0.2564743    -0.0385336
C           4.8562579    -0.6963606    -0.2985679
H           5.0239588    -1.6744077    -0.7388303
C           5.9510009     0.1083261     0.0196734
H           6.9550716    -0.2511305    -0.1895748
C           0.2769214    -2.2272873    -0.0041960
H          -0.4388388    -2.3059685     0.8145930
H           0.6752946    -3.2219435    -0.2319756
H          -0.2490849    -1.8666150    -0.8962905
O           1.2580263    -0.6539626     1.5046229
22
249_C9H11NO_0-1-12-10 (-30,) energy =    -479.5641332
C           1.2943579    -1.1909746     0.3658095
N           2.4591769    -1.1174329    -0.3928941
C           2.6368962    -1.9650557    -1.5746041
H           1.6742443    -2.1848646    -2.0335994
H           3.1335462    -2.9162669    -1.3400559
H           3.2417654    -1.4306537    -2.3103221
C           5.7679224     1.3616728     0.5986082
H           6.6179583     1.9927931     0.8420808
C           4.4758386     1.7384894     0.9673908
H           4.3125274     2.6716466     1.5002437
C           3.3753895     0.9397021     0.6621996
H           2.3850524     1.2440761     0.9640081
C           3.5547850    -0.2687869    -0.0333888
C           4.8585076    -0.6499974    -0.3937204
H           5.0352353    -1.5907189    -0.9034907
C           5.9502443     0.1606776    -0.0839967
H           6.9472417    -0.1598265    -0.3747549
C           0.2313145    -2.1883212    -0.0864902
H          -0.5370740    -2.1973940     0.6870774
H           0.6252868    -3.2019570    -0.2149934
H          -0.2327901    -1.8855639    -1.0328922
O           1.1022298    -0.5084170     1.3622257
22
249_C9H11NO_0-1-12-10 (-15,) energy =    -479.5630138
C           1.2471541    -1.0978852     0.2982778
N           2.4768136    -1.1186572    -0.3577014
C           2.7069839    -2.0540573    -1.4616110
H           1.7639025    -2.4419001    -1.8353123
H           3.3322930    -2.9031133    -1.1570412
H           3.2032947    -1.5353638    -2.2864340
C           5.7961744     1.3861237     0.5871518
H           6.6482491     2.0186616     0.8193594
C           4.5256571     1.6951764     1.0720899
H           4.3789684     2.5782410     1.6887616
C           3.4218231     0.8941527     0.7852506
H           2.4520385     1.1501597     1.1789487
C           3.5682244    -0.2535356    -0.0187446
C           4.8562882    -0.5658275    -0.4953817
H           5.0293655    -1.4530477    -1.0912274
C           5.9501675     0.2461784    -0.1976352
H           6.9287637    -0.0277316    -0.5832944
C           0.1968592    -2.1217876    -0.1302121
H          -0.6321072    -2.0196412     0.5706349
H           0.5668757    -3.1519429    -0.0988420
H          -0.1801825    -1.9271070    -1.1411966
O           0.9781763    -0.3178485     1.2014859
22
249_C9H11NO_0-1-12-10 (0,) energy =    -479.5623389
C           1.2065611    -1.0284985     0.2149263
N           2.4834822    -1.1366942    -0.3360627
C           2.7751295    -2.1891944    -1.3115703
H           1.8942812    -2.7939713    -1.4958388
H           3.5690087    -2.8497395    -0.9453491
H           3.0944848    -1.7568202    -2.2663798
C           5.7961380     1.4011983     0.5758196
H           6.6455323     2.0401883     0.7999850
C           4.5631397     1.6081511     1.1929167
H           4.4421191     2.4172972     1.9086966
C           3.4634162     0.7980607     0.9170757
H           2.5228357     0.9811349     1.4085439
C           3.5729376    -0.2640746    -0.0046867
C           4.8233783    -0.4659128    -0.6238714
H           4.9735342    -1.2623145    -1.3399090
C           5.9130353     0.3553841    -0.3351743
H           6.8591931     0.1648410    -0.8350996
C           0.1421625    -2.0312302    -0.2322169
H          -0.7655255    -1.7691333     0.3118831
H           0.4091739    -3.0658483     0.0101285
H          -0.0651273    -1.9749166    -1.3066250
O           0.8942821    -0.1754159     1.0345921
22
249_C9H11NO_0-1-12-10 (15,) energy =    -479.5630143
C           1.1853714    -0.9558940     0.1277780
N           2.4922748    -1.1547241    -0.3137745
C           2.8199321    -2.3147638    -1.1467373
H           2.0325353    -3.0604521    -1.0881449
H           3.7432849    -2.7772666    -0.7873002
H           2.9554021    -2.0387543    -2.2003404
C           5.7866480     1.4079338     0.5612919
H           6.6331299     2.0535029     0.7775352
C           4.6072381     1.5073993     1.2988079
H           4.5275537     2.2362207     2.1013578
C           3.5113161     0.6880531     1.0340630
H           2.6082999     0.7908323     1.6128817
C           3.5778043    -0.2760011     0.0088485
C           4.7678613    -0.3627399    -0.7395352
H           4.8596102    -1.0643192    -1.5589965
C           5.8545042     0.4659727    -0.4620757
H           6.7559092     0.3696409    -1.0617444
C           0.1187397    -1.9427122    -0.3450962
H          -0.8361156    -1.5510948     0.0066034
H           0.2615349    -2.9412375     0.0846584
H           0.0839014    -2.0443891    -1.4348594
O           0.8530248    -0.0296700     0.8546761
22
249_C9H11NO_0-1-12-10 (30,) energy =    -479.5641331
C           1.1757799    -0.8838038     0.0248560
N           2.4984867    -1.1759964    -0.2959054
C           2.8377946    -2.3977963    -1.0297800
H           2.1206391    -3.1865865    -0.8079689
H           3.8229398    -2.7447200    -0.7106193
H           2.8579131    -2.2443388    -2.1172170
C           5.7625199     1.4060897     0.5734394
H           6.6036106     2.0577938     0.7925324
C           4.6327703     1.4060936     1.3926677
H           4.5898752     2.0594715     2.2602182
C           3.5460003     0.5758350     1.1247379
H           2.6776905     0.5970854     1.7651196
C           3.5761488    -0.2859634     0.0143923
C           4.7110901    -0.2754420    -0.8142453
H           4.7538965    -0.9050724    -1.6961725
C           5.7925148     0.5588900    -0.5324294
H           6.6569009     0.5462154    -1.1911708
C           0.1136497    -1.8829332    -0.4256511
H          -0.8536095    -1.4310028    -0.2041082
H           0.1881165    -2.8294903     0.1231875
H           0.1687612    -2.1100195    -1.4954966
O           0.8428464     0.1246809     0.6312871
22
249_C9H11NO_0-1-12-10 (45,) energy =    -479.5646215
C           1.1780676    -0.8324255    -0.0693539
N           2.5036014    -1.2124644    -0.2554080
C           2.8481786    -2.4750748    -0.9113403
H           2.1630830    -3.2654136    -0.6012366
H           3.8550859    -2.7663989    -0.6060802
H           2.8235706    -2.4075675    -2.0078888
C           5.7329071     1.4125303     0.5634568
H           6.5668611     2.0755798     0.7759756
C           4.6574466     1.3239055     1.4500229
H           4.6528033     1.9175384     2.3603527
C           3.5846212     0.4738129     1.1904177
H           2.7545535     0.4143067     1.8809370
C           3.5722930    -0.3008668     0.0208185
C           4.6496666    -0.2067672    -0.8712002
H           4.6483580    -0.7858083    -1.7894803
C           5.7236697     0.6410058    -0.5974061
H           6.5491281     0.7000506    -1.3018977
C           0.1098555    -1.8351406    -0.4914463
H          -0.8560397    -1.3480815    -0.3546012
H           0.1373866    -2.7397790     0.1277418
H           0.2129143    -2.1442886    -1.5373112
O           0.8627260     0.2456038     0.4131228
22
249_C9H11NO_0-1-12-10 (60,) energy =    -479.5640767
C           1.1970770    -0.7657668    -0.1649965
N           2.5109462    -1.2170331    -0.2106896
C           2.8639088    -2.5247516    -0.7645132
H           2.1684600    -3.2897224    -0.4124315
H           3.8631011    -2.7925263    -0.4153106
H           2.8656723    -2.5405686    -1.8636398
C           5.7347594     1.4221211     0.5506696
H           6.5693930     2.0878617     0.7522271
C           4.7318211     1.2419046     1.5064803
H           4.7849765     1.7663177     2.4567882
C           3.6633173     0.3830784     1.2579559
H           2.8846130     0.2411958     1.9980701
C           3.5794952    -0.2929112     0.0346689
C           4.5817092    -0.1099563    -0.9244725
H           4.5184951    -0.6252346    -1.8787102
C           5.6570258     0.7411033    -0.6637576
H           6.4289363     0.8750315    -1.4169284
C           0.1171596    -1.7626019    -0.5678766
H          -0.8382989    -1.2388642    -0.5256412
H           0.0818364    -2.6179628     0.1172824
H           0.2689899    -2.1545371    -1.5798181
O           0.9094582     0.3660125     0.1956705
22
249_C9H11NO_0-1-12-10 (75,) energy =    -479.5630755
C           1.1624013    -0.6577471    -0.2823434
N           2.4499876    -1.1605907    -0.1677937
C           2.8165081    -2.5220229    -0.5561873
H           2.0367404    -3.2281286    -0.2631256
H           3.7351773    -2.7993936    -0.0339284
H           2.9899683    -2.6277067    -1.6368800
C           5.6870865     1.4588488     0.5964117
H           6.5256401     2.1197967     0.7979304
C           4.7648756     1.1685724     1.6045670
H           4.8838829     1.6031232     2.5934104
C           3.6922386     0.3148996     1.3513071
H           2.9718432     0.0815289     2.1285378
C           3.5264455    -0.2402919     0.0791879
C           4.4462841     0.0530638    -0.9316103
H           4.3110384    -0.3730486    -1.9219573
C           5.5264905     0.8978120    -0.6710346
H           6.2371536     1.1220796    -1.4619954
C           0.0707808    -1.6476828    -0.6707730
H          -0.8609242    -1.0873466    -0.7547239
H          -0.0537801    -2.4297138     0.0876431
H           0.2807688    -2.1422097    -1.6259292
O           0.9075245     0.5176126    -0.0639388
22
249_C9H11NO_0-1-12-10 (90,) energy =    -479.5626845
C           1.2998565    -0.5797509    -0.6039820
N           2.5505726    -1.1211734    -0.3648674
C           2.8587964    -2.5462189    -0.2979098
H           3.0426721    -2.8715989     0.7353519
H           3.7592554    -2.7602902    -0.8845300
H           2.0389932    -3.1373292    -0.7055888
C           5.7884605     1.4283009     0.5997521
H           6.6264513     2.0741037     0.8476653
C           4.9649797     0.9315938     1.6118954
H           5.1581376     1.1915986     2.6491426
C           3.8878896     0.1035503     1.2944115
H           3.2354804    -0.2799173     2.0738920
C           3.6309252    -0.2279379    -0.0382597
C           4.4543769     0.2688961    -1.0513969
H           4.2392830     0.0106548    -2.0843115
C           5.5304042     1.0974822    -0.7319634
H           6.1648577     1.4868195    -1.5235917
C           0.1605583    -1.5486786    -0.9015551
H          -0.7376478    -0.9498264    -1.0557908
H          -0.0142116    -2.2462515    -0.0745781
H           0.3503628    -2.1399877    -1.8048227
O           1.1151007     0.6289758    -0.5860619
22
249_C9H11NO_0-1-12-10 (105,) energy =    -479.5629877
C           1.3622994    -0.6327886    -0.7756945
N           2.5859861    -1.1722954    -0.4077977
C           2.7738802    -2.5826593    -0.0703304
H           2.5039716    -2.8134892     0.9704320
H           3.8258434    -2.8404956    -0.2152208
H           2.1783362    -3.2183243    -0.7286589
C           5.7762836     1.4323874     0.5729826
H           6.6005722     2.0948165     0.8227631
C           5.0928716     0.7542501     1.5831529
H           5.3784813     0.8897834     2.6228755
C           4.0295907    -0.0912922     1.2630808
H           3.4835624    -0.6059193     2.0490103
C           3.6580286    -0.2750527    -0.0718686
C           4.3396866     0.4073487    -1.0831784
H           4.0329466     0.2690574    -2.1149203
C           5.3933601     1.2609880    -0.7592576
H           5.9174409     1.7917086    -1.5494811
C           0.2173520    -1.6144184    -0.9956112
H          -0.6705934    -1.0286587    -1.2355135
H           0.0172535    -2.2238558    -0.1070947
H           0.4254225    -2.2978976    -1.8273828
O           1.2095882     0.5692184    -0.9363433
22
249_C9H11NO_0-1-12-10 (120,) energy =    -479.5639709
C           1.4093068    -0.6424348    -0.9013374
N           2.5929040    -1.1645373    -0.3925323
C           2.6859138    -2.5405221     0.0973755
H           2.2287781    -2.6768647     1.0877515
H           3.7405346    -2.8145979     0.1653020
H           2.2039614    -3.2295597    -0.5999156
C           5.8023453     1.4294662     0.5605468
H           6.6308923     2.0893236     0.8025862
C           5.2288303     0.6305774     1.5495128
H           5.6036591     0.6680042     2.5689007
C           4.1594119    -0.2112263     1.2395888
H           3.7026026    -0.8167114     2.0173509
C           3.6707921    -0.2754148    -0.0699698
C           4.2435814     0.5296814    -1.0612882
H           3.8511487     0.4905276    -2.0707182
C           5.3014395     1.3787324    -0.7425836
H           5.7394259     2.0005875    -1.5186913
C           0.2560473    -1.6212427    -1.0862111
H          -0.6009370    -1.0482763    -1.4415593
H          -0.0121025    -2.1299974    -0.1535121
H           0.4974166    -2.3927239    -1.8270891
O           1.2942047     0.5352884    -1.2063393
22
249_C9H11NO_0-1-12-10 (135,) energy =    -479.5646076
C           1.4255893    -0.7101992    -0.9996563
N           2.5651605    -1.1708789    -0.3479157
C           2.6216118    -2.5141012     0.2314225
H           2.1414048    -2.5750966     1.2180222
H           3.6680380    -2.8061913     0.3385270
H           2.1389071    -3.2355626    -0.4298045
C           5.8155857     1.4006218     0.5487502
H           6.6553762     2.0507554     0.7776263
C           5.3245395     0.5189765     1.5103966
H           5.7752533     0.4785648     2.4985132
C           4.2425491    -0.3120167     1.2168731
H           3.8578503    -0.9790345     1.9823158
C           3.6447872    -0.2788741    -0.0503184
C           4.1410573     0.6072421    -1.0175964
H           3.6793783     0.6462693    -1.9949977
C           5.2153341     1.4399122    -0.7117591
H           5.5895875     2.1212013    -1.4712798
C           0.2845455    -1.7062817    -1.1730554
H          -0.5475669    -1.1635765    -1.6224809
H          -0.0407809    -2.1427295    -0.2224145
H           0.5663960    -2.5307909    -1.8388720
O           1.3273014     0.4307066    -1.4273450
22
249_C9H11NO_0-1-12-10 (150,) energy =    -479.5642406
C           1.4465059    -0.7633085    -1.0935250
N           2.5278666    -1.1439091    -0.3038508
C           2.5557156    -2.4545178     0.3496177
H           2.1217889    -2.4325530     1.3584991
H           3.5909515    -2.7941008     0.4252214
H           2.0085237    -3.1862966    -0.2428840
C           5.8419277     1.3801545     0.5401659
H           6.6975880     2.0131871     0.7576070
C           5.4130017     0.4286914     1.4632546
H           5.9289191     0.3132556     2.4128620
C           4.3134585    -0.3827531     1.1834506
H           3.9891468    -1.1001537     1.9294121
C           3.6177082    -0.2566684    -0.0302921
C           4.0571434     0.6999492    -0.9619329
H           3.5347638     0.8151215    -1.8994991
C           5.1551058     1.5061950    -0.6683668
H           5.4782654     2.2387152    -1.4034529
C           0.3127935    -1.7719197    -1.2548649
H          -0.4836865    -1.2627184    -1.7982294
H          -0.0770850    -2.1300043    -0.2961657
H           0.6269023    -2.6463472    -1.8374298
O           1.3740295     0.3274281    -1.6417688
22
249_C9H11NO_0-1-12-10 (165,) energy =    -479.5630851
C           1.4310108    -0.8495424    -1.1161921
N           2.4768075    -1.1338789    -0.2398673
C           2.4899399    -2.3910601     0.5119703
H           1.7964319    -3.1032873     0.0747488
H           2.2133087    -2.2432904     1.5637376
H           3.4896668    -2.8327252     0.4745086
C           5.8349746     1.3955349     0.4706591
H           6.6987781     2.0278260     0.6553617
C           5.5175138     0.3545235     1.3391721
H           6.1307400     0.1640225     2.2161230
C           4.4095674    -0.4583389     1.1008906
H           4.1924451    -1.2440218     1.8135199
C           3.5791483    -0.2453759    -0.0161398
C           3.9086898     0.8068242    -0.8933769
H           3.2919563     0.9954397    -1.7567337
C           5.0204619     1.6083090    -0.6413917
H           5.2493464     2.4113798    -1.3373052
C           0.2997670    -1.8705697    -1.2283485
H          -0.4530182    -1.4215776    -1.8768000
H          -0.1577066    -2.1084573    -0.2622479
H           0.6350346    -2.8090465    -1.6854639
O           1.3714160     0.1751158    -1.7819264
22
249_C9H11NO_0-1-12-10 (180,) energy =    -479.5623390
C           1.4970590    -0.9179709    -1.1935732
N           2.4692823    -1.1236433    -0.2146355
C           2.3778011    -2.2801639     0.6789828
H           1.5007116    -2.8738480     0.4468649
H           2.3027517    -1.9593734     1.7240255
H           3.2589024    -2.9230562     0.5742869
C           5.8489595     1.3932629     0.4846683
H           6.7119547     2.0260232     0.6714292
C           5.6229064     0.2532413     1.2505632
H           6.3097667    -0.0184321     2.0479731
C           4.5153522    -0.5600683     1.0116809
H           4.3913382    -1.4325081     1.6385538
C           3.5924606    -0.2549534    -0.0095399
C           3.8293753     0.9020891    -0.7808177
H           3.1447670     1.1650272    -1.5694392
C           4.9413978     1.7027004    -0.5275024
H           5.0921093     2.5867610    -1.1418602
C           0.3522526    -1.9267031    -1.2945008
H          -0.2831757    -1.5800836    -2.1098003
H          -0.2481146    -1.9761757    -0.3793059
H           0.7013534    -2.9385112    -1.5287381
O           1.5121630     0.0247341    -1.9734412
