19
067_C8H7N4-_4-6-16-17 (-165,) energy =    -528.0877361
C           5.5406861     1.4885347     1.3362623
H           6.2644772     2.2357160     1.6567209
C           5.9430630     0.1893544     1.0200818
H           6.9921902    -0.0937586     1.0889111
C           4.9993662    -0.7460975     0.6088671
H           5.2922325    -1.7610406     0.3600877
C           3.6294147    -0.4287323     0.5033284
C           3.2190043     0.8918127     0.8264948
C           1.7752853     1.3301791     0.7543209
H           1.1310827     0.6848574     1.3611676
H           1.3789744     1.2421836    -0.2613488
H           1.6722716     2.3673357     1.0993726
C           4.1889542     1.8174643     1.2353148
H           3.8653453     2.8278193     1.4839177
N           2.0169705    -3.4186448    -0.5015551
N           3.0892022    -2.7828973    -0.0182964
C           2.7146248    -1.4869757     0.0560538
N           1.4466925    -1.3149853    -0.3747922
N           1.0355453    -2.5431196    -0.7183992
19
067_C8H7N4-_4-6-16-17 (-150,) energy =    -528.0867225
C           5.5023523     1.4608226     1.5171977
H           6.2303396     2.2024591     1.8409936
C           5.7743821     0.0964056     1.6303716
H           6.7230076    -0.2437990     2.0425025
C           4.8312069    -0.8338064     1.2025849
H           5.0243231    -1.8988870     1.2829799
C           3.5900731    -0.4413570     0.6644480
C           3.3131959     0.9456987     0.5495621
C           2.0049196     1.4539165    -0.0093160
H           1.1513336     1.0292924     0.5318084
H           1.8665531     1.1403927    -1.0476201
H           1.9561939     2.5485479     0.0555382
C           4.2789538     1.8644680     0.9802985
H           4.0579635     2.9279636     0.8934874
N           1.7838340    -3.4185700     0.0107555
N           2.7031065    -2.7496150     0.7174673
C           2.6631440    -1.4935483     0.2243486
N           1.7599200    -1.3800041    -0.7719115
N           1.2232943    -2.6035469    -0.8817279
19
067_C8H7N4-_4-6-16-17 (-135,) energy =    -528.0848749
C           5.4975280     1.4590221     1.5104694
H           6.2285640     2.2005568     1.8277109
C           5.7745471     0.0954681     1.6132191
H           6.7302377    -0.2433661     2.0096265
C           4.8273903    -0.8356108     1.1908901
H           5.0265501    -1.9005588     1.2616558
C           3.5796244    -0.4409775     0.6762942
C           3.3000363     0.9445681     0.5685102
C           1.9775738     1.4361215     0.0269261
H           1.1444676     1.0945109     0.6550048
H           1.7852211     1.0251143    -0.9674762
H           1.9539419     2.5324291    -0.0107483
C           4.2669296     1.8650853     0.9899947
H           4.0445922     2.9287291     0.9090495
N           1.6866018    -3.3738064     0.0583924
N           2.5181924    -2.6726359     0.8452785
C           2.6450090    -1.4846704     0.2209213
N           1.9430304    -1.4436716    -0.9296881
N           1.3485522    -2.6458327    -1.0008151
19
067_C8H7N4-_4-6-16-17 (-120,) energy =    -528.0822672
C           5.5054074     1.4621726     1.5024386
H           6.2377391     2.2040526     1.8159486
C           5.7932202     0.0999350     1.5868587
H           6.7579208    -0.2359091     1.9632692
C           4.8436011    -0.8334836     1.1710958
H           5.0536507    -1.8975967     1.2274941
C           3.5861848    -0.4391440     0.6868128
C           3.3000563     0.9439631     0.5900758
C           1.9681362     1.4162487     0.0547325
H           1.1432356     1.0624686     0.6866161
H           1.7838262     1.0039495    -0.9414539
H           1.9255854     2.5116675     0.0138200
C           4.2653569     1.8687562     1.0041511
H           4.0379240     2.9320254     0.9337505
N           1.5483325    -3.2882725     0.1039935
N           2.3036899    -2.5537363     0.9413371
C           2.6396036    -1.4705745     0.2157311
N           2.1505624    -1.5264975    -1.0385864
N           1.4620145    -2.6817183    -1.0725693
19
067_C8H7N4-_4-6-16-17 (-105,) energy =    -528.0795607
C           5.4982077     1.4673499     1.5073377
H           6.2194597     2.2163466     1.8295921
C           5.8135788     0.1099723     1.5620827
H           6.7877294    -0.2137685     1.9242702
C           4.8763028    -0.8337447     1.1385000
H           5.1109233    -1.8940637     1.1729434
C           3.6099347    -0.4528833     0.6726491
C           3.2974853     0.9244879     0.6048643
C           1.9522819     1.3698782     0.0808673
H           1.1402262     0.9888858     0.7127587
H           1.7759588     0.9648082    -0.9205758
H           1.8810273     2.4638933     0.0470457
C           4.2466349     1.8616168     1.0282944
H           3.9997303     2.9216738     0.9791937
N           1.3612076    -3.1599396     0.1429350
N           2.0556982    -2.3773825     0.9954964
C           2.6583081    -1.4826855     0.1925419
N           2.3867776    -1.6902463    -1.1091217
N           1.5594757    -2.7557938    -1.1009097
19
067_C8H7N4-_4-6-16-17 (-90,) energy =    -528.0784373
C           5.4998635     1.4730336     1.5074863
H           6.2053105     2.2301726     1.8453511
C           5.8459058     0.1225432     1.5319998
H           6.8259826    -0.1877948     1.8898567
C           4.9260440    -0.8327876     1.0946843
H           5.1851368    -1.8881028     1.1098011
C           3.6564118    -0.4686980     0.6274070
C           3.3075524     0.9009165     0.6052366
C           1.9448480     1.3204814     0.1074929
H           1.1544393     0.8253944     0.6823972
H           1.8019072     1.0135555    -0.9350552
H           1.8102981     2.4066833     0.1781526
C           4.2364468     1.8501815     1.0457052
H           3.9637807     2.9048525     1.0267547
N           1.1139297    -2.9154478     0.1481752
N           1.7806657    -2.0757871     0.9709173
C           2.6951737    -1.5028341     0.1689317
N           2.6200275    -1.9379963    -1.1008866
N           1.6089544    -2.8343657    -1.0734596
19
067_C8H7N4-_4-6-16-17 (-75,) energy =    -528.0795624
C           5.5029870     1.4716727     1.5034112
H           6.2038230     2.2301914     1.8477090
C           5.8609136     0.1240158     1.5024267
H           6.8455476    -0.1837387     1.8498736
C           4.9440406    -0.8320461     1.0617143
H           5.2087362    -1.8860589     1.0589596
C           3.6696615    -0.4712960     0.6020051
C           3.3045734     0.8952794     0.6134445
C           1.9341360     1.3202523     0.1410832
H           1.1540001     0.7909204     0.6968138
H           1.7877829     1.0593831    -0.9145092
H           1.7925060     2.4019827     0.2547148
C           4.2309010     1.8435972     1.0615995
H           3.9479113     2.8957149     1.0644664
N           1.0006945    -2.7677341     0.0864563
N           1.6029683    -1.8390591     0.8582618
C           2.7113663    -1.5152610     0.1675730
N           2.8063529    -2.1783647    -0.9987167
N           1.7095851    -2.9651172    -1.0123580
19
067_C8H7N4-_4-6-16-17 (-60,) energy =    -528.0818656
C           5.5059690     1.4622399     1.4926664
H           6.2117509     2.2159158     1.8374069
C           5.8623499     0.1141505     1.4673873
H           6.8510078    -0.2002213     1.7972314
C           4.9375615    -0.8341693     1.0298621
H           5.1994106    -1.8883408     1.0079235
C           3.6555927    -0.4680169     0.5898418
C           3.2913680     0.8998002     0.6260916
C           1.9203415     1.3474154     0.1750083
H           1.1386122     0.8141058     0.7228714
H           1.7613790     1.1120335    -0.8852060
H           1.7953720     2.4288361     0.3105492
C           4.2275986     1.8389208     1.0743376
H           3.9456865     2.8911796     1.0943255
N           0.9608135    -2.7156279    -0.0051732
N           1.4813975    -1.6912662     0.6973170
C           2.7078708    -1.5211283     0.1688200
N           2.9519722    -2.3752882    -0.8429666
N           1.8304073    -3.1169940    -0.9210338
19
067_C8H7N4-_4-6-16-17 (-45,) energy =    -528.0843845
C           5.5081627     1.4594884     1.4861509
H           6.2198772     2.2074077     1.8311251
C           5.8601981     0.1104645     1.4370083
H           6.8525647    -0.2117223     1.7478919
C           4.9275799    -0.8291663     1.0014682
H           5.1845915    -1.8834318     0.9584939
C           3.6371611    -0.4563105     0.5852800
C           3.2777001     0.9136958     0.6417545
C           1.9088558     1.3866762     0.2096142
H           1.1216190     0.8630789     0.7577260
H           1.7323573     1.1608858    -0.8499683
H           1.8073405     2.4697458     0.3531387
C           4.2250687     1.8423387     1.0897499
H           3.9461851     2.8950462     1.1251225
N           0.9507569    -2.6839145    -0.1200482
N           1.3993742    -1.5781202     0.4981978
C           2.7028119    -1.5147430     0.1629853
N           3.0637765    -2.5239827    -0.6547734
N           1.9394240    -3.2425487    -0.8091692
19
067_C8H7N4-_4-6-16-17 (-30,) energy =    -528.0864427
C           5.5087362     1.4392524     1.4712407
H           6.2265150     2.1829096     1.8127752
C           5.8564267     0.0891509     1.4011893
H           6.8532621    -0.2377565     1.6924712
C           4.9182511    -0.8440308     0.9686725
H           5.1701493    -1.8981172     0.9058974
C           3.6186119    -0.4667274     0.5782751
C           3.2637333     0.9049131     0.6531309
C           1.8924521     1.3960934     0.2518980
H           1.1106361     0.9437932     0.8677185
H           1.6514873     1.1009648    -0.7761276
H           1.8367343     2.4896547     0.3276267
C           4.2211839     1.8264199     1.0970903
H           3.9440551     2.8791019     1.1459091
N           0.9387043    -2.6586890    -0.2560720
N           1.3492482    -1.4928562     0.2649104
C           2.6927632    -1.5248124     0.1495862
N           3.1155388    -2.6621433    -0.4422200
N           1.9929410    -3.3519243    -0.6820176
19
067_C8H7N4-_4-6-16-17 (-15,) energy =    -528.0876675
C           5.5135656     1.4365481     1.4643128
H           6.2337605     2.1781532     1.8051428
C           5.8613726     0.0870527     1.3766408
H           6.8621624    -0.2421974     1.6515340
C           4.9218626    -0.8422048     0.9424788
H           5.1732983    -1.8951668     0.8655553
C           3.6136857    -0.4658391     0.5742042
C           3.2589990     0.9063096     0.6636307
C           1.8861391     1.4124748     0.2884122
H           1.1083332     0.9680193     0.9160254
H           1.6190023     1.1220046    -0.7332841
H           1.8448251     2.5062690     0.3737190
C           4.2219880     1.8233938     1.1068732
H           3.9430469     2.8749179     1.1689049
N           0.9577936    -2.6282314    -0.4091619
N           1.3559884    -1.4202214     0.0124088
C           2.6964584    -1.5248482     0.1340156
N           3.1279533    -2.7580382    -0.2099761
N           2.0183427    -3.4241484    -0.5454902
19
067_C8H7N4-_4-6-16-17 (0,) energy =    -528.0880429
C           5.5069525     1.4445423     1.4461570
H           6.2278197     2.1877702     1.7819448
C           5.8588600     0.0964849     1.3504883
H           6.8641436    -0.2303344     1.6116811
C           4.9201770    -0.8340893     0.9189922
H           5.1742103    -1.8860038     0.8380378
C           3.6048566    -0.4632524     0.5685114
C           3.2460119     0.9078180     0.6655137
C           1.8665292     1.4139180     0.3157831
H           1.0947990     0.9273161     0.9204229
H           1.6000968     1.1725550    -0.7179427
H           1.8104650     2.5007737     0.4613279
C           4.2103711     1.8265987     1.1031512
H           3.9265747     2.8762295     1.1745776
N           0.9908753    -2.6045967    -0.5645460
N           1.4048996    -1.3703349    -0.2493673
C           2.6928787    -1.5253932     0.1255866
N           3.0744820    -2.8195040     0.0474647
N           1.9906160    -3.4690066    -0.3863183
19
067_C8H7N4-_4-6-16-17 (15,) energy =    -528.0876671
C           5.5023716     1.4586162     1.4291758
H           6.2228550     2.2045597     1.7597373
C           5.8614206     0.1132594     1.3257536
H           6.8716212    -0.2086821     1.5736673
C           4.9239170    -0.8203342     0.8967476
H           5.1843433    -1.8705341     0.8126842
C           3.6028201    -0.4556331     0.5644629
C           3.2370224     0.9124463     0.6698807
C           1.8472315     1.4059142     0.3432251
H           1.0858209     0.8577031     0.9078795
H           1.5947392     1.2305011    -0.7066805
H           1.7592655     2.4774646     0.5656104
C           4.1999029     1.8352084     1.1013193
H           3.9103652     2.8824885     1.1833411
N           1.0496502    -2.5826907    -0.7179932
N           1.5066127    -1.3413411    -0.5030465
C           2.6920245    -1.5176929     0.1181841
N           2.9670204    -2.8285965     0.2950214
N           1.9219450    -3.4692975    -0.2389287
19
067_C8H7N4-_4-6-16-17 (30,) energy =    -528.0864465
C           5.5103979     1.4609054     1.4218227
H           6.2300064     2.2086705     1.7502573
C           5.8772495     0.1191723     1.3051081
H           6.8928129    -0.1964704     1.5384119
C           4.9408344    -0.8171497     0.8757485
H           5.2072197    -1.8652369     0.7806699
C           3.6148592    -0.4565205     0.5664218
C           3.2426238     0.9077777     0.6816136
C           1.8424027     1.3828204     0.3713962
H           1.0971015     0.8213373     0.9462658
H           1.5839663     1.2065994    -0.6763164
H           1.7373155     2.4508404     0.6019096
C           4.2024327     1.8343417     1.1096102
H           3.9084756     2.8794583     1.2026102
N           1.1230272    -2.5693026    -0.8500961
N           1.6501818    -1.3426495    -0.7198677
C           2.7019135    -1.5129509     0.1072009
N           2.8237770    -2.7985590     0.5008418
N           1.8206726    -3.4351525    -0.1174908
19
067_C8H7N4-_4-6-16-17 (45,) energy =    -528.0843880
C           5.4950989     1.4720583     1.4215146
H           6.2092411     2.2243444     1.7516544
C           5.8778568     0.1371279     1.2883027
H           6.8992757    -0.1677863     1.5096337
C           4.9480168    -0.8058992     0.8541665
H           5.2292692    -1.8489889     0.7434133
C           3.6174165    -0.4561961     0.5635006
C           3.2306332     0.9013776     0.6925430
C           1.8179751     1.3485381     0.3955257
H           1.0978164     0.8275308     1.0389286
H           1.5326988     1.0955504    -0.6288443
H           1.7090440     2.4284638     0.5564934
C           4.1805210     1.8360629     1.1222952
H           3.8767987     2.8772519     1.2268172
N           1.2005753    -2.5578192    -0.9905870
N           1.8182260    -1.3662880    -0.9217442
C           2.7035899    -1.5078687     0.0839962
N           2.6351404    -2.7299409     0.6493064
N           1.6826125    -3.3657047    -0.0524738
19
067_C8H7N4-_4-6-16-17 (60,) energy =    -528.0818647
C           5.4963147     1.4944518     1.4134356
H           6.2054228     2.2530211     1.7401175
C           5.8957898     0.1665394     1.2644240
H           6.9243498    -0.1252713     1.4693021
C           4.9716289    -0.7865066     0.8358837
H           5.2677529    -1.8243571     0.7111962
C           3.6348699    -0.4507148     0.5687913
C           3.2332136     0.8996412     0.7103214
C           1.8092985     1.3165246     0.4238022
H           1.1090388     0.8041733     1.0958577
H           1.5177908     1.0296918    -0.5903674
H           1.6827183     2.3985359     0.5530412
C           4.1735144     1.8458928     1.1342583
H           3.8587411     2.8827116     1.2485846
N           1.2722395    -2.5430137    -1.0755817
N           2.0033059    -1.4122068    -1.0577161
C           2.7098144    -1.4968960     0.0852019
N           2.4247203    -2.6134244     0.7816819
N           1.5182742    -3.2516906     0.0169779
19
067_C8H7N4-_4-6-16-17 (75,) energy =    -528.0795616
C           5.5017067     1.4960690     1.4086520
H           6.2059330     2.2591350     1.7355044
C           5.9162699     0.1752641     1.2413975
H           6.9503640    -0.1058268     1.4327128
C           4.9976524    -0.7860617     0.8162347
H           5.3083770    -1.8182872     0.6785515
C           3.6568462    -0.4618119     0.5659721
C           3.2405961     0.8805023     0.7266527
C           1.8077570     1.2705960     0.4500133
H           1.1218140     0.7275240     1.1118137
H           1.5244686     0.9981605    -0.5714390
H           1.6537272     2.3467486     0.5959281
C           4.1717206     1.8359486     1.1490157
H           3.8464852     2.8679545     1.2764602
N           1.3662010    -2.5804788    -1.1443206
N           2.2115121    -1.5289734    -1.1598131
C           2.7154327    -1.5017528     0.0875112
N           2.2038771    -2.4660730     0.8733457
N           1.3593969    -3.1319783     0.0578186
19
067_C8H7N4-_4-6-16-17 (90,) energy =    -528.0784386
C           5.5015227     1.4984384     1.4053539
H           6.2051859     2.2586014     1.7401779
C           5.9201982     0.1829936     1.2092799
H           6.9566902    -0.0966006     1.3893296
C           5.0010543    -0.7762538     0.7789562
H           5.3167589    -1.8043541     0.6227255
C           3.6597691    -0.4509175     0.5381961
C           3.2380265     0.8835607     0.7364364
C           1.7979881     1.2616097     0.4831818
H           1.1268778     0.6856602     1.1307205
H           1.5104732     1.0199390    -0.5461060
H           1.6283371     2.3308449     0.6589272
C           4.1671039     1.8368613     1.1676237
H           3.8380355     2.8643095     1.3194906
N           1.5081802    -2.7158434    -1.1708136
N           2.4422656    -1.7401783    -1.2152007
C           2.7014190    -1.4877370     0.0797394
N           1.9716028    -2.2477631     0.9147515
N           1.2304692    -3.0151563     0.0851236
19
067_C8H7N4-_4-6-16-17 (105,) energy =    -528.0795605
C           5.5025499     1.4923398     1.4072541
H           6.2133149     2.2368863     1.7615255
C           5.9110749     0.1807117     1.1671546
H           6.9456049    -0.1127651     1.3361813
C           4.9823260    -0.7599092     0.7186714
H           5.2867070    -1.7859157     0.5310198
C           3.6436298    -0.4155778     0.4838317
C           3.2284464     0.9113915     0.7412254
C           1.7866973     1.3087150     0.5264001
H           1.1191670     0.6650408     1.1079874
H           1.4975370     1.1799271    -0.5241090
H           1.6163140     2.3552266     0.8072769
C           4.1675492     1.8444816     1.1946681
H           3.8445680     2.8671598     1.3867137
N           1.7245722    -2.9633235    -1.0943781
N           2.7049184    -2.0381842    -1.1620702
C           2.6789461    -1.4529165     0.0484548
N           1.7482585    -1.9864521     0.8610625
N           1.1614482    -2.9348848     0.1021191
19
067_C8H7N4-_4-6-16-17 (120,) energy =    -528.0822668
C           5.5019387     1.4835369     1.4110389
H           6.2170361     2.2183403     1.7766098
C           5.9066501     0.1781276     1.1320829
H           6.9424433    -0.1213904     1.2823279
C           4.9725624    -0.7505799     0.6730293
H           5.2707607    -1.7717877     0.4542641
C           3.6296807    -0.4006439     0.4600657
C           3.2177372     0.9212473     0.7552948
C           1.7780462     1.3380873     0.5625035
H           1.1077869     0.6881403     1.1323450
H           1.4772942     1.2366811    -0.4882371
H           1.6254684     2.3812535     0.8657722
C           4.1645187     1.8400183     1.2220794
H           3.8442658     2.8580563     1.4418106
N           1.8728060    -3.1196932    -0.9985720
N           2.8978237    -2.2483547    -1.0331744
C           2.6759495    -1.4388388     0.0194913
N           1.5786596    -1.7965952     0.7148683
N           1.0932312    -2.8553141     0.0417091
19
067_C8H7N4-_4-6-16-17 (135,) energy =    -528.0848764
C           5.5000966     1.4832356     1.3998277
H           6.2160167     2.2189597     1.7618557
C           5.9063199     0.1825847     1.0999535
H           6.9460654    -0.1134541     1.2288081
C           4.9705499    -0.7458763     0.6477355
H           5.2677559    -1.7629951     0.4112104
C           3.6187740    -0.4047371     0.4638599
C           3.2055285     0.9157706     0.7722694
C           1.7686074     1.3491030     0.5953923
H           1.0928238     0.7039218     1.1627569
H           1.4562616     1.2556762    -0.4528224
H           1.6345257     2.3935245     0.9038078
C           4.1581687     1.8321638     1.2332059
H           3.8361650     2.8471813     1.4642638
N           1.9689908    -3.2260825    -0.9094620
N           3.0319190    -2.4069814    -0.8712840
C           2.6849177    -1.4513803     0.0140488
N           1.4609769    -1.6697800     0.5360821
N           1.0363501    -2.7913825    -0.0683746
19
067_C8H7N4-_4-6-16-17 (150,) energy =    -528.0867228
C           5.5084936     1.4869834     1.3976763
H           6.2247401     2.2258016     1.7526420
C           5.9157807     0.1884828     1.0869356
H           6.9587303    -0.1031507     1.1994786
C           4.9801758    -0.7413340     0.6419317
H           5.2773751    -1.7556149     0.3947854
C           3.6209454    -0.4094704     0.4796659
C           3.2064935     0.9105259     0.7950569
C           1.7700377     1.3531014     0.6433777
H           1.1056615     0.7808444     1.2966047
H           1.4022606     1.1639454    -0.3718099
H           1.6704083     2.4240361     0.8624042
C           4.1635772     1.8281169     1.2471459
H           3.8393872     2.8413175     1.4831367
N           2.0255419    -3.2895193    -0.8293212
N           3.1198797    -2.5313926    -0.6881515
C           2.7023906    -1.4606808     0.0201463
N           1.3917698    -1.5500265     0.3290906
N           0.9945965    -2.7074313    -0.2187008
19
067_C8H7N4-_4-6-16-17 (165,) energy =    -528.0877363
C           5.5134446     1.4914944     1.3807793
H           6.2313924     2.2339142     1.7245296
C           5.9211530     0.1935449     1.0662187
H           6.9667895    -0.0944031     1.1627795
C           4.9845739    -0.7389536     0.6328778
H           5.2817528    -1.7521961     0.3822852
C           3.6190800    -0.4162602     0.4915433
C           3.2040296     0.9041359     0.8093100
C           1.7670055     1.3524917     0.6843199
H           1.1095599     0.7840198     1.3486725
H           1.3758383     1.1648784    -0.3211977
H           1.6787468     2.4230534     0.9112816
C           4.1657098     1.8252228     1.2469300
H           3.8397031     2.8370931     1.4861308
N           2.0529097    -3.3470729    -0.7368251
N           3.1589591    -2.6401181    -0.4833606
C           2.7104949    -1.4741690     0.0312070
N           1.3624575    -1.4537245     0.1034053
N           0.9784536    -2.6405658    -0.3859126
19
067_C8H7N4-_4-6-16-17 (180,) energy =    -528.0880429
C           5.5271431     1.4878752     1.3576950
H           6.2480398     2.2327798     1.6896714
C           5.9319278     0.1891423     1.0420372
H           6.9794030    -0.0965929     1.1243876
C           4.9920873    -0.7446637     0.6201487
H           5.2869711    -1.7586993     0.3703804
C           3.6232998    -0.4259799     0.4965033
C           3.2107539     0.8949642     0.8174774
C           1.7716254     1.3430843     0.7202826
H           1.1168932     0.7312676     1.3486114
H           1.3788608     1.2159373    -0.2933948
H           1.6791236     2.3964113     1.0161318
C           4.1773795     1.8182162     1.2405258
H           3.8520066     2.8291068     1.4846896
N           2.0514312    -3.3979129    -0.6210316
N           3.1494439    -2.7321962    -0.2525263
C           2.7152681    -1.4868444     0.0425628
N           1.3813181    -1.3772789    -0.1366949
N           0.9927223    -2.5897206    -0.5525618
