18
236_C7H7NO3_0-1-8-6 (-165,) energy =    -551.3963026
C           1.7499076    -1.2363363    -0.6761978
O           2.1419507     0.0580714    -0.4341144
C           5.8879474     1.2442075     0.9143009
H           6.8737191     1.5387250     1.2547241
C           4.8190360     2.0949789     0.9603906
H           4.9508612     3.1027648     1.3460051
C           3.5239313     1.7066932     0.5168008
H           2.6730309     2.3742036     0.5380786
C           3.3844911     0.4363854     0.0328551
N           4.4356288    -0.4217921    -0.0193583
H           4.2727592    -1.3791792    -0.3164971
C           5.7552212    -0.1106744     0.4158670
C           0.2965960    -1.2562009    -1.0662302
H           0.0042147    -2.2784915    -1.3064191
H           0.1290889    -0.6034928    -1.9288462
H          -0.3168553    -0.8758359    -0.2427598
O           2.4757110    -2.1991434    -0.5930603
O           6.6274745    -0.9671245     0.3424547
18
236_C7H7NO3_0-1-8-6 (-150,) energy =    -551.3954066
C           1.7332734    -1.2291387    -0.6070767
O           2.1840668     0.0722061    -0.5623668
C           5.8856893     1.2330557     0.9230822
H           6.8636089     1.5200330     1.2915033
C           4.8038785     2.0634661     1.0094361
H           4.9172209     3.0482893     1.4554653
C           3.5179667     1.6822204     0.5311363
H           2.6589368     2.3381074     0.5761823
C           3.4029238     0.4433225    -0.0311199
N           4.4684946    -0.3950630    -0.1233079
H           4.3167555    -1.3513989    -0.4259341
C           5.7771611    -0.0944419     0.3490979
C           0.3009171    -1.2492314    -1.0670839
H          -0.0333678    -2.2829634    -1.1561133
H           0.2091242    -0.7388930    -2.0311775
H          -0.3296197    -0.7122763    -0.3507807
O           2.4096277    -2.1900266    -0.3317587
O           6.6607177    -0.9359685     0.2456346
18
236_C7H7NO3_0-1-8-6 (-135,) energy =    -551.3942319
C           1.7010070    -1.1986339    -0.5016986
O           2.2178916     0.0745080    -0.6600144
C           5.8755898     1.2324404     0.9305724
H           6.8468377     1.5168619     1.3181464
C           4.7767083     2.0327121     1.0653271
H           4.8687702     2.9906074     1.5708581
C           3.4990113     1.6536005     0.5606926
H           2.6271627     2.2888757     0.6416157
C           3.4106554     0.4506655    -0.0759566
N           4.4958643    -0.3564578    -0.2172480
H           4.3754709    -1.2980946    -0.5717170
C           5.7968511    -0.0601834     0.2762388
C           0.3182189    -1.2565590    -1.0915805
H          -0.0618545    -2.2756557    -1.0189189
H           0.3426170    -0.9363382    -2.1380931
H          -0.3454935    -0.5705532    -0.5550547
O           2.3029560    -2.1025092     0.0190088
O           6.6985092    -0.8745239     0.1238992
18
236_C7H7NO3_0-1-8-6 (-120,) energy =    -551.3934505
C           1.6379982    -1.1290425    -0.3805767
O           2.2398431     0.0702833    -0.7377781
C           5.8619930     1.2126040     0.9397538
H           6.8289667     1.4889925     1.3434957
C           4.7510792     1.9862465     1.1212099
H           4.8286910     2.9124136     1.6848606
C           3.4788593     1.6193052     0.5917700
H           2.5957285     2.2310194     0.7188693
C           3.4087676     0.4557119    -0.1134785
N           4.5091659    -0.3202541    -0.3047996
H           4.4218783    -1.2154425    -0.7712675
C           5.8067656    -0.0347013     0.1996755
C           0.3314547    -1.2733857    -1.1126844
H          -0.1117076    -2.2398666    -0.8721628
H           0.4927910    -1.1896043    -2.1920884
H          -0.3497276    -0.4672615    -0.8208171
O           2.1284526    -1.9053678     0.3949335
O           6.7247476    -0.8155742    -0.0173432
18
236_C7H7NO3_0-1-8-6 (-105,) energy =    -551.3932097
C           1.5766794    -1.0678101    -0.2834205
O           2.2849794     0.0122550    -0.8007058
C           5.8542481     1.1632772     0.9773613
H           6.8116648     1.4373151     1.4048556
C           4.7251437     1.9008738     1.1928415
H           4.7780099     2.7934135     1.8109288
C           3.4652849     1.5389324     0.6297129
H           2.5671340     2.1199315     0.7912385
C           3.4273924     0.4161582    -0.1389721
N           4.5470361    -0.3217912    -0.3659671
H           4.4890211    -1.1636010    -0.9274543
C           5.8352943    -0.0364322     0.1599236
C           0.3384001    -1.2992554    -1.1065184
H          -0.1985674    -2.1634193    -0.7150849
H           0.6083399    -1.4665629    -2.1541641
H          -0.3032497    -0.4127606    -1.0726662
O           1.9436616    -1.6900898     0.6756356
O           6.7751456    -0.7755154    -0.1048654
18
236_C7H7NO3_0-1-8-6 (-90,) energy =    -551.3932535
C           1.5271299    -0.9995913    -0.2237726
O           2.3564887    -0.0718791    -0.8496367
C           5.8678670     1.1530766     0.9885513
H           6.8143018     1.4445653     1.4287290
C           4.7102693     1.8323355     1.2422680
H           4.7284867     2.6930174     1.9058282
C           3.4645934     1.4511829     0.6605926
H           2.5444368     1.9858125     0.8549309
C           3.4698948     0.3661866    -0.1607995
N           4.6175255    -0.3152651    -0.4232044
H           4.5915591    -1.1137022    -1.0472790
C           5.8966181    -0.0008737     0.1081400
C           0.3526998    -1.3039861    -1.1142769
H          -0.2865284    -2.0414227    -0.6285680
H           0.7008094    -1.6864232    -2.0792080
H          -0.2138857    -0.3881990    -1.3116475
O           1.7598369    -1.4574829     0.8607841
O           6.8662631    -0.6818450    -0.2016421
18
236_C7H7NO3_0-1-8-6 (-75,) energy =    -551.3934440
C           1.4450103    -0.9115619    -0.1740675
O           2.4016722    -0.1640162    -0.8587548
C           5.8765845     1.1581871     0.9767388
H           6.8177374     1.4736276     1.4116849
C           4.6952127     1.7740807     1.2795353
H           4.6890236     2.6064227     1.9785426
C           3.4558605     1.3645608     0.7047812
H           2.5190320     1.8504466     0.9414347
C           3.4907738     0.3130240    -0.1591042
N           4.6618494    -0.3077040    -0.4664338
H           4.6549113    -1.0773561    -1.1262897
C           5.9378955     0.0441869     0.0486435
C           0.3443197    -1.3019299    -1.1235337
H          -0.3994655    -1.8933951    -0.5894150
H           0.7542015    -1.8802090    -1.9578916
H          -0.1210689    -0.4052724    -1.5454430
O           1.5303034    -1.1781706     0.9923670
O           6.9293182    -0.5800275    -0.3089071
18
236_C7H7NO3_0-1-8-6 (-60,) energy =    -551.3938256
C           1.3604896    -0.8178944    -0.1432525
O           2.4366825    -0.2637812    -0.8331972
C           5.8881282     1.1655057     0.9599293
H           6.8270562     1.5083948     1.3785449
C           4.6895930     1.7151613     1.3187194
H           4.6680297     2.5214149     2.0474013
C           3.4512738     1.2728648     0.7672096
H           2.5034833     1.7043042     1.0563596
C           3.5059647     0.2527748    -0.1340839
N           4.6946302    -0.3035957    -0.4959830
H           4.7001404    -1.0479062    -1.1843657
C           5.9695443     0.0891831    -0.0092718
C           0.3413002    -1.3118185    -1.1348094
H          -0.5012204    -1.7479811    -0.5979124
H           0.7905166    -2.0588178    -1.7971764
H          -0.0019938    -0.4829494    -1.7623879
O           1.2961083    -0.8706328     1.0534677
O           6.9755732    -0.4768338    -0.4197739
18
236_C7H7NO3_0-1-8-6 (-45,) energy =    -551.3942944
C           1.2958184    -0.7241201    -0.1436245
O           2.4722467    -0.3556979    -0.7870042
C           5.9062064     1.1875566     0.9416819
H           6.8444109     1.5583771     1.3374943
C           4.6985038     1.6712441     1.3595655
H           4.6692873     2.4534368     2.1138255
C           3.4582851     1.1935583     0.8421918
H           2.5080187     1.5734970     1.1851456
C           3.5228390     0.2052435    -0.0953946
N           4.7220978    -0.2848785    -0.5170867
H           4.7330773    -1.0067609    -1.2289246
C           5.9962524     0.1465854    -0.0638471
C           0.3554909    -1.3299305    -1.1514044
H          -0.5685344    -1.6200341    -0.6510308
H           0.8171037    -2.2041407    -1.6216956
H           0.1407090    -0.6065603    -1.9448128
O           1.0952568    -0.5647633     1.0289785
O           7.0087730    -0.3634156    -0.5286443
18
236_C7H7NO3_0-1-8-6 (-30,) energy =    -551.3946804
C           1.2317578    -0.6324427    -0.1637614
O           2.4836300    -0.4371549    -0.7273380
C           5.9124632     1.2005727     0.9227060
H           6.8519757     1.5926250     1.2942066
C           4.7055907     1.6277268     1.3994120
H           4.6784447     2.3861254     2.1777671
C           3.4605713     1.1229765     0.9188768
H           2.5149136     1.4597476     1.3114601
C           3.5217265     0.1666427    -0.0536882
N           4.7218840    -0.2661990    -0.5349451
H           4.7298508    -0.9674213    -1.2671740
C           5.9974322     0.1931610    -0.1163208
C           0.3572610    -1.3543625    -1.1549179
H          -0.6276334    -1.5120774    -0.7150600
H           0.8050181    -2.3161085    -1.4252384
H           0.2663896    -0.7651802    -2.0733983
O           0.9220071    -0.2682541     0.9382698
O           7.0071387    -0.2698563    -0.6336467
18
236_C7H7NO3_0-1-8-6 (-15,) energy =    -551.3949324
C           1.1866474    -0.5534236    -0.2018941
O           2.4893267    -0.5168754    -0.6673545
C           5.9167801     1.2035659     0.8999722
H           6.8575602     1.6127950     1.2490555
C           4.7159974     1.5806861     1.4304875
H           4.6954543     2.3160845     2.2308724
C           3.4673960     1.0534605     0.9830730
H           2.5280827     1.3538695     1.4159153
C           3.5198425     0.1285867    -0.0213151
N           4.7151096    -0.2542911    -0.5563419
H           4.7171798    -0.9369602    -1.3059122
C           5.9917721     0.2276704    -0.1691656
C           0.3522232    -1.3737378    -1.1506615
H          -0.6735957    -1.4109972    -0.7836460
H           0.7576229    -2.3873893    -1.2325146
H           0.3746457    -0.9292677    -2.1511411
O           0.8058867    -0.0071306     0.7988366
O           6.9944137    -0.1938965    -0.7336489
18
236_C7H7NO3_0-1-8-6 (0,) energy =    -551.3950222
C           1.1676842    -0.4920380    -0.2536808
O           2.5001200    -0.5986687    -0.6068005
C           5.9175597     1.2109409     0.8805017
H           6.8565447     1.6396204     1.2105739
C           4.7239849     1.5356199     1.4595178
H           4.7075145     2.2479938     2.2805790
C           3.4772280     0.9819712     1.0390561
H           2.5433234     1.2470573     1.5047440
C           3.5239990     0.0889527     0.0055230
N           4.7124029    -0.2414511    -0.5782011
H           4.7108858    -0.9064183    -1.3435172
C           5.9863474     0.2665938    -0.2169623
C           0.3525795    -1.3913525    -1.1462527
H          -0.6976043    -1.3186841    -0.8630096
H           0.6944931    -2.4272417    -1.0533339
H           0.4776784    -1.0967012    -2.1933944
O           0.7492786     0.2122058     0.6264819
O           6.9821512    -0.1105754    -0.8234154
18
236_C7H7NO3_0-1-8-6 (15,) energy =    -551.3949331
C           1.1681239    -0.4322853    -0.3066594
O           2.5123767    -0.6701739    -0.5332834
C           5.9121005     1.2353660     0.8719604
H           6.8465584     1.6867964     1.1840409
C           4.7279877     1.5035849     1.4976439
H           4.7146669     2.1927708     2.3382949
C           3.4881318     0.9180237     1.1013677
H           2.5601529     1.1445125     1.5988224
C           3.5304889     0.0579598     0.0405030
N           4.7089190    -0.2149140    -0.5906569
H           4.7056968    -0.8639886    -1.3694950
C           5.9773204     0.3220575    -0.2517229
C           0.3561105    -1.3984612    -1.1291442
H          -0.7036588    -1.2236039    -0.9428491
H           0.6171921    -2.4288848    -0.8669183
H           0.5749444    -1.2649647    -2.1936401
O           0.7419318     0.4134809     0.4335521
O           6.9658690    -0.0076587    -0.8964789
18
236_C7H7NO3_0-1-8-6 (30,) energy =    -551.3946805
C           1.1928339    -0.3771133    -0.3849096
O           2.5291748    -0.7389533    -0.4637217
C           5.9041550     1.2571398     0.8730104
H           6.8311892     1.7322165     1.1718603
C           4.7307396     1.4653186     1.5408479
H           4.7183363     2.1286424     2.4020043
C           3.5030304     0.8454413     1.1610412
H           2.5811352     1.0268678     1.6892370
C           3.5435775     0.0223162     0.0724552
N           4.7101616    -0.1907697    -0.6006170
H           4.7067989    -0.8192939    -1.3961554
C           5.9690347     0.3793374    -0.2789128
C           0.3651546    -1.4043528    -1.1115697
H          -0.6878978    -1.1318905    -1.0393817
H           0.5267059    -2.3949868    -0.6742068
H           0.6661141    -1.4569979    -2.1629638
O           0.7897124     0.6021562     0.1821620
O           6.9502856     0.1022621    -0.9585427
18
236_C7H7NO3_0-1-8-6 (45,) energy =    -551.3942944
C           1.2364887    -0.3348238    -0.4813297
O           2.5406967    -0.8088427    -0.3918235
C           5.8930310     1.2760265     0.8640690
H           6.8115961     1.7771196     1.1461099
C           4.7372273     1.4193446     1.5787039
H           4.7305165     2.0554734     2.4601132
C           3.5242310     0.7611279     1.2189797
H           2.6126065     0.8877750     1.7827800
C           3.5573527    -0.0228436     0.1035019
N           4.7044024    -0.1705382    -0.6167358
H           4.6973654    -0.7757637    -1.4301240
C           5.9520618     0.4364504    -0.3167964
C           0.3671221    -1.4045255    -1.0869628
H          -0.6593825    -1.0422938    -1.1455736
H           0.4104714    -2.3128276    -0.4772196
H           0.7295242    -1.6639486    -2.0870048
O           0.8943042     0.7574146    -0.1200301
O           6.9201939     0.2172574    -1.0351367
18
236_C7H7NO3_0-1-8-6 (60,) energy =    -551.3938255
C           1.2833050    -0.3114318    -0.5826569
O           2.5284538    -0.8710535    -0.3039004
C           5.8689680     1.2933659     0.8480124
H           6.7801222     1.8202116     1.1061396
C           4.7421550     1.3721814     1.6170506
H           4.7508617     1.9813960     2.5172000
C           3.5420668     0.6766983     1.2864156
H           2.6496447     0.7447175     1.8922249
C           3.5546881    -0.0692374     0.1465386
N           4.6712074    -0.1519516    -0.6280589
H           4.6514854    -0.7322023    -1.4592140
C           5.9080852     0.4925234    -0.3609412
C           0.3538615    -1.3929864    -1.0646022
H          -0.6244007    -0.9599561    -1.2739492
H           0.2638155    -2.1756960    -0.3044667
H           0.7569945    -1.8604891    -1.9688370
O           1.0340307     0.8539061    -0.4451475
O           6.8522443     0.3323725    -1.1250743
18
236_C7H7NO3_0-1-8-6 (75,) energy =    -551.3934439
C           1.3542654    -0.3152656    -0.6918269
O           2.5152465    -0.9140910    -0.2056542
C           5.8540627     1.3086298     0.8450788
H           6.7602843     1.8551259     1.0786476
C           4.7635708     1.3272069     1.6679609
H           4.7961138     1.9065249     2.5870767
C           3.5715118     0.6048818     1.3658263
H           2.7068281     0.6165441     2.0153811
C           3.5539518    -0.1036034     0.2035097
N           4.6342685    -0.1277841    -0.6232410
H           4.5938729    -0.6788824    -1.4732297
C           5.8610703     0.5495796    -0.3918158
C           0.3569214    -1.3828177    -1.0538103
H          -0.5515361    -0.9139131    -1.4321804
H           0.1269859    -1.9939972    -0.1751563
H           0.7784149    -2.0490461    -1.8135419
O           1.2187146     0.8725494    -0.7900276
O           6.7732213     0.4461331    -1.2027951
18
236_C7H7NO3_0-1-8-6 (90,) energy =    -551.3932531
C           1.4267160    -0.3387086    -0.7978783
O           2.4857802    -0.9241654    -0.1080767
C           5.8430227     1.3193046     0.8431883
H           6.7495002     1.8747535     1.0535115
C           4.7937872     1.2858051     1.7171346
H           4.8601675     1.8308466     2.6551861
C           3.6014740     0.5521434     1.4424268
H           2.7676157     0.5190277     2.1308067
C           3.5430896    -0.1153520     0.2579597
N           4.5835263    -0.0917657    -0.6179621
H           4.5144322    -0.6073541    -1.4880415
C           5.8044611     0.6066336    -0.4209982
C           0.3634000    -1.3720332    -1.0558491
H          -0.4605737    -0.9128826    -1.6022793
H           0.0025639    -1.7824963    -0.1072458
H           0.7793095    -2.2036438    -1.6338481
O           1.4142290     0.8180513    -1.1169820
O           6.6786456     0.5534664    -1.2770798
18
236_C7H7NO3_0-1-8-6 (105,) energy =    -551.3932087
C           1.4732802    -0.3797586    -0.8804975
O           2.4237816    -0.8992382    -0.0073228
C           5.8333375     1.3048188     0.8535930
H           6.7491182     1.8524870     1.0430101
C           4.8276622     1.2319317     1.7747850
H           4.9399974     1.7350402     2.7317101
C           3.6218875     0.5116802     1.5243196
H           2.8219338     0.4439565     2.2494550
C           3.5071592    -0.1070930     0.3173625
N           4.5057227    -0.0480010    -0.6041986
H           4.3878837    -0.4998932    -1.5037499
C           5.7308724     0.6515736    -0.4389091
C           0.3504921    -1.3676660    -1.0469133
H          -0.3816565    -0.9665613    -1.7478911
H          -0.1236159    -1.5609760    -0.0791822
H           0.7404223    -2.3219967    -1.4153639
O           1.5824336     0.6976255    -1.3992367
O           6.5584339     0.6461777    -1.3415617
18
236_C7H7NO3_0-1-8-6 (120,) energy =    -551.3934506
C           1.5354083    -0.4564795    -0.9649240
O           2.3795146    -0.8523659     0.0639864
C           5.8543541     1.2625461     0.8958139
H           6.7836360     1.7875990     1.0834160
C           4.8773066     1.1540263     1.8440564
H           5.0272386     1.6027753     2.8226571
C           3.6538482     0.4653600     1.5943026
H           2.8794044     0.3620501     2.3425213
C           3.4915116    -0.0907310     0.3611495
N           4.4592871     0.0066760    -0.5893755
H           4.2903689    -0.3513646    -1.5220321
C           5.6973468     0.6853869    -0.4265845
C           0.3461287    -1.3764295    -1.0215644
H          -0.2874555    -1.0951876    -1.8628716
H          -0.2214312    -1.3091252    -0.0875762
H           0.6771769    -2.4143327    -1.1282454
O           1.7659569     0.4812939    -1.6805930
O           6.4905789     0.7270139    -1.3585443
18
236_C7H7NO3_0-1-8-6 (135,) energy =    -551.3942316
C           1.6030894    -0.5550252    -1.0608179
O           2.3476154    -0.7800559     0.0829347
C           5.8724531     1.2546846     0.9105203
H           6.8096408     1.7638515     1.1025100
C           4.9188440     1.0992487     1.8762340
H           5.0972439     1.4898349     2.8748411
C           3.6843312     0.4351584     1.6196128
H           2.9316548     0.2863931     2.3822334
C           3.4871070    -0.0524509     0.3612329
N           4.4272012     0.0951121    -0.6101275
H           4.2015825    -0.1546662    -1.5659142
C           5.6718934     0.7625990    -0.4396118
C           0.3340434    -1.3608595    -1.0010117
H          -0.2225631    -1.2253594    -1.9284382
H          -0.2735340    -1.0380442    -0.1492069
H           0.5684479    -2.4198433    -0.8527520
O           1.9576524     0.1693431    -1.9552691
O           6.4335938     0.8689463    -1.3924226
18
236_C7H7NO3_0-1-8-6 (150,) energy =    -551.3954065
C           1.6449845    -0.6487509    -1.1113026
O           2.2998690    -0.6901790     0.1003579
C           5.8835112     1.2490266     0.9085233
H           6.8304559     1.7403225     1.0991564
C           4.9588853     1.0453345     1.8938804
H           5.1714433     1.3779792     2.9067139
C           3.7121237     0.4058124     1.6403331
H           2.9808003     0.2215081     2.4157990
C           3.4717241    -0.0090809     0.3619339
N           4.3800367     0.1871265    -0.6296825
H           4.1136606    -0.0154136    -1.5873911
C           5.6360513     0.8348251    -0.4592074
C           0.3148037    -1.3408087    -0.9874745
H          -0.1753082    -1.3540172    -1.9610700
H          -0.3131549    -0.8171686    -0.2591751
H           0.4563171    -2.3632455    -0.6228076
O           2.0986591    -0.1443811    -2.1094762
O           6.3681982     0.9893500    -1.4285509
18
236_C7H7NO3_0-1-8-6 (165,) energy =    -551.3963027
C           1.6702006    -0.7125424    -1.1312652
O           2.2373556    -0.5701754     0.1120614
C           5.8889110     1.2394173     0.9177694
H           6.8489575     1.7037204     1.1104034
C           4.9862549     0.9961243     1.9150297
H           5.2296759     1.2700567     2.9384633
C           3.7241726     0.3898721     1.6611762
H           3.0062453     0.1823396     2.4432025
C           3.4430581     0.0512119     0.3674943
N           4.3280452     0.2864080    -0.6352858
H           4.0498536     0.0874378    -1.5915428
C           5.6020304     0.8982810    -0.4617534
C           0.3092832    -1.3398871    -0.9935032
H          -0.1158048    -1.4945346    -1.9852881
H          -0.3447719    -0.6890957    -0.4038073
H           0.3866225    -2.2945243    -0.4634781
O           2.2002559    -0.3873658    -2.1676052
O           6.3162021     1.0820292    -1.4394637
18
236_C7H7NO3_0-1-8-6 (180,) energy =    -551.3966189
C           1.6877724    -0.7717605    -1.1294740
O           2.1764921    -0.4441404     0.1109006
C           5.8965172     1.2241585     0.9118055
H           6.8705691     1.6588981     1.1031209
C           5.0152160     0.9431540     1.9184137
H           5.2896811     1.1586908     2.9479378
C           3.7366652     0.3722325     1.6668551
H           3.0309971     0.1456967     2.4547148
C           3.4148780     0.1101448     0.3644689
N           4.2779308     0.3834181    -0.6471845
H           3.9982996     0.1714693    -1.6006071
C           5.5715609     0.9530931    -0.4745169
C           0.3021076    -1.3418267    -0.9884583
H          -0.0671988    -1.6314192    -1.9723349
H          -0.3652649    -0.5960595    -0.5439281
H           0.3165942    -2.2090208    -0.3207450
O           2.2873565    -0.6176017    -2.1680543
O           6.2710291     1.1581988    -1.4586390
