18
236_C7H7NO3_16-0-1-8 (-165,) energy =    -551.3870368
C           1.2800213    -1.4312208     0.1140940
O           2.5336002    -1.4198853     0.7403789
C           5.4841309     1.4265415     0.1394162
H           6.2962097     2.1237323    -0.0303298
C           4.3564468     1.7783251     0.8252533
H           4.2618591     2.7876785     1.2172895
C           3.2896594     0.8594221     1.0568143
H           2.4093190     1.1263943     1.6271482
C           3.4305240    -0.4013707     0.5541799
N           4.5523294    -0.7595434    -0.1314219
H           4.6440664    -1.7170948    -0.4538315
C           5.6651014     0.0868216    -0.3905587
C           1.0928772    -0.4934810    -1.0554807
H           0.1758699    -0.7809954    -1.5704943
H           1.9413167    -0.5379269    -1.7451211
H           1.0024247     0.5413746    -0.7122017
O           0.4617159    -2.1968206     0.5345451
O           6.6285595    -0.3502827    -1.0057273
18
236_C7H7NO3_16-0-1-8 (-150,) energy =    -551.3861253
C           1.2580860    -1.3813815     0.1483957
O           2.5842289    -1.4770277     0.5984633
C           5.4993251     1.4363805     0.1930564
H           6.3048623     2.1511407     0.0727798
C           4.3354526     1.7547332     0.8337411
H           4.2051228     2.7541139     1.2408874
C           3.2767017     0.8138532     1.0018700
H           2.3727771     1.0536935     1.5470562
C           3.4620877    -0.4349885     0.4802036
N           4.6181206    -0.7582653    -0.1625343
H           4.7355100    -1.7035273    -0.5115167
C           5.7270803     0.1112050    -0.3534543
C           1.0263738    -0.5132626    -1.0661436
H           0.0276769    -0.7261410    -1.4485745
H           1.7760403    -0.7127866    -1.8382478
H           1.0936366     0.5473148    -0.8081666
O           0.4276487    -2.0250832     0.7208856
O           6.7237133    -0.2979639    -0.9342548
18
236_C7H7NO3_16-0-1-8 (-135,) energy =    -551.3851308
C           1.2290467    -1.3542419     0.1491476
O           2.6083752    -1.5112810     0.3946748
C           5.4636414     1.4829431     0.3177433
H           6.2567057     2.2202936     0.2796531
C           4.2519858     1.7472436     0.8915239
H           4.0702336     2.7253033     1.3296926
C           3.2078414     0.7782222     0.9518039
H           2.2673376     0.9759802     1.4501535
C           3.4582139    -0.4448373     0.3923857
N           4.6604440    -0.7132072    -0.1852640
H           4.8196477    -1.6349918    -0.5774453
C           5.7575611     0.1885095    -0.2671639
C           0.8853947    -0.5640255    -1.0887622
H          -0.1935615    -0.4103880    -1.1222348
H           1.1952960    -1.1393337    -1.9694002
H           1.4051413     0.3959433    -1.1200294
O           0.4592679    -1.9289989     0.8606598
O           6.7975429    -0.1745017    -0.8010719
18
236_C7H7NO3_16-0-1-8 (-120,) energy =    -551.3842964
C           1.2785041    -1.2677000     0.1363709
O           2.6693911    -1.5152273     0.2104695
C           5.5912694     1.4099280     0.3407015
H           6.4009251     2.1298411     0.3524751
C           4.3621274     1.6891063     0.8688755
H           4.1835000     2.6612794     1.3213122
C           3.2942373     0.7450886     0.8631555
H           2.3403824     0.9549450     1.3300962
C           3.5414346    -0.4725108     0.2881721
N           4.7603730    -0.7554318    -0.2445894
H           4.9138919    -1.6693671    -0.6566903
C           5.8797439     0.1228738    -0.2614298
C           0.8527037    -0.5611396    -1.1238782
H          -0.2039994    -0.3007612    -1.0541141
H           1.0038121    -1.2377935    -1.9733986
H           1.4532237     0.3343901    -1.3023914
O           0.5670357    -1.7045144     0.9909031
O           6.9316449    -0.2532402    -0.7623087
18
236_C7H7NO3_16-0-1-8 (-105,) energy =    -551.3836471
C           1.3081379    -1.2169186     0.1314436
O           2.6973492    -1.4932798     0.0665083
C           5.6427185     1.3927582     0.3909317
H           6.4580739     2.1040026     0.4477071
C           4.4007985     1.6676705     0.8910659
H           4.2177482     2.6277092     1.3671185
C           3.3237180     0.7369046     0.8253326
H           2.3597115     0.9447693     1.2711212
C           3.5770793    -0.4666573     0.2228218
N           4.8087292    -0.7462573    -0.2808527
H           4.9654484    -1.6471886    -0.7193666
C           5.9357522     0.1221180    -0.2415131
C           0.7743191    -0.6334904    -1.1476119
H          -0.2822259    -0.3903826    -1.0295797
H           0.8972315    -1.3652921    -1.9542377
H           1.3403156     0.2607416    -1.4262578
O           0.6883430    -1.5236017     1.1051190
O           6.9972850    -0.2503497    -0.7249578
18
236_C7H7NO3_16-0-1-8 (-90,) energy =    -551.3835642
C           1.3229807    -1.1309159     0.1072166
O           2.7050781    -1.4032325    -0.0561596
C           5.7054584     1.3930504     0.4827945
H           6.5346637     2.0820454     0.5902619
C           4.4543515     1.6810833     0.9522041
H           4.2780554     2.6290827     1.4543370
C           3.3570903     0.7819817     0.8199731
H           2.3848078     1.0034063     1.2390072
C           3.6016396    -0.4072693     0.1861011
N           4.8425871    -0.7009115    -0.2854261
H           4.9922715    -1.5893673    -0.7508660
C           5.9878811     0.1381789    -0.1834913
C           0.6833998    -0.7164641    -1.1867368
H          -0.3811666    -0.5345059    -1.0351850
H           0.8274848    -1.5041371    -1.9343022
H           1.1708527     0.1874890    -1.5682892
O           0.7918018    -1.3072923     1.1622955
O           7.0544864    -0.2453050    -0.6474112
18
236_C7H7NO3_16-0-1-8 (-75,) energy =    -551.3845366
C           1.2781986    -0.9989347     0.1207904
O           2.6479495    -1.2563338    -0.1189601
C           5.7488590     1.3962954     0.5676578
H           6.6030576     2.0480153     0.7072780
C           4.5086246     1.7073598     1.0512405
H           4.3678245     2.6366879     1.5975883
C           3.3771021     0.8589284     0.8780093
H           2.4133902     1.0985967     1.3046536
C           3.5783257    -0.3059064     0.1880618
N           4.8082777    -0.6239638    -0.2967907
H           4.9241519    -1.4932500    -0.8058876
C           5.9843802     0.1650804    -0.1576415
C           0.5359241    -0.8146159    -1.1708159
H          -0.5321638    -0.7121166    -0.9759242
H           0.7218616    -1.6694473    -1.8293628
H           0.9115248     0.0776345    -1.6850403
O           0.8253726    -1.0251533     1.2267522
O           7.0358563    -0.2369090    -0.6405865
18
236_C7H7NO3_16-0-1-8 (-60,) energy =    -551.3867488
C           1.2471130    -0.8609580     0.0613031
O           2.6066593    -1.1130022    -0.1846233
C           5.8135422     1.3741987     0.6337407
H           6.6946451     1.9823182     0.8006370
C           4.5947873     1.6970688     1.1616947
H           4.4994418     2.5910614     1.7729393
C           3.4276139     0.9051562     0.9557199
H           2.4817332     1.1491680     1.4158582
C           3.5719553    -0.2126756     0.1815400
N           4.7809209    -0.5429373    -0.3481852
H           4.8520491    -1.3755361    -0.9224934
C           5.9888798     0.1883004    -0.1790346
C           0.4609884    -0.9652920    -1.2146002
H          -0.6055736    -0.8948747    -0.9987010
H           0.6856492    -1.9141983    -1.7125952
H           0.7591709    -0.1623386    -1.8983200
O           0.8167607    -0.6939213     1.1664678
O           7.0158210    -0.2180825    -0.7092503
18
236_C7H7NO3_16-0-1-8 (-45,) energy =    -551.3897416
C           1.2077862    -0.6734341    -0.0311966
O           2.5590340    -0.9866621    -0.1825860
C           5.8723477     1.3393537     0.6954835
H           6.7802081     1.9040950     0.8718833
C           4.6896272     1.6508263     1.3049358
H           4.6519777     2.4907497     1.9941479
C           3.4877355     0.9133128     1.0893937
H           2.5683958     1.1430947     1.6045469
C           3.5605018    -0.1320277     0.2124975
N           4.7348938    -0.4510846    -0.3998765
H           4.7502307    -1.2288645    -1.0500575
C           5.9720459     0.2246036    -0.2248932
C           0.4453071    -1.1247075    -1.2463572
H          -0.6249977    -1.0217458    -1.0653492
H           0.6923596    -2.1654115    -1.4791208
H           0.7363081    -0.5193111    -2.1121992
O           0.7488929    -0.2029031     0.9727736
O           6.9613905    -0.1619837    -0.8357083
18
236_C7H7NO3_16-0-1-8 (-30,) energy =    -551.3925346
C           1.1938911    -0.5881181    -0.1293279
O           2.5408394    -0.8779737    -0.3022146
C           5.9000685     1.3132197     0.7356678
H           6.8210652     1.8419662     0.9514206
C           4.7237829     1.6127892     1.3624388
H           4.7036237     2.4058502     2.1057808
C           3.5034345     0.9228113     1.0956156
H           2.5864058     1.1503444     1.6138256
C           3.5532454    -0.0639675     0.1518283
N           4.7228801    -0.3703413    -0.4786463
H           4.7224162    -1.1061428    -1.1761202
C           5.9748828     0.2604457    -0.2577674
C           0.3997595    -1.2505607    -1.2231359
H          -0.6645145    -1.1497172    -1.0089899
H           0.6716881    -2.3079341    -1.3003427
H           0.6299632    -0.7819835    -2.1863592
O           0.7548122     0.0355905     0.7987990
O           6.9571945    -0.1090325    -0.8902951
18
236_C7H7NO3_16-0-1-8 (-15,) energy =    -551.3943873
C           1.1897029    -0.5301502    -0.1889699
O           2.5316618    -0.7448209    -0.4496684
C           5.9269020     1.2774177     0.7943230
H           6.8588869     1.7611895     1.0622082
C           4.7434604     1.5890999     1.4007878
H           4.7278722     2.3465434     2.1805009
C           3.5069345     0.9604544     1.0641781
H           2.5826780     1.2067405     1.5591010
C           3.5511867     0.0151370     0.0783690
N           4.7290551    -0.3024854    -0.5324768
H           4.7254226    -1.0088562    -1.2597348
C           5.9944452     0.2716632    -0.2473529
C           0.3665388    -1.3211276    -1.1715805
H          -0.6860112    -1.2496046    -0.8967535
H           0.6847249    -2.3682077    -1.1790705
H           0.5121275    -0.9262099    -2.1829859
O           0.7723159     0.1555311     0.7059705
O           6.9822212    -0.1030585    -0.8682314
18
236_C7H7NO3_16-0-1-8 (0,) energy =    -551.3950214
C           1.1638573    -0.4953407    -0.2516355
O           2.4952155    -0.5984450    -0.6076644
C           5.9117644     1.2136545     0.8805005
H           6.8509493     1.6424938     1.2098957
C           4.7177763     1.5385930     1.4581290
H           4.7006183     2.2521453     2.2781705
C           3.4714425     0.9836774     1.0372123
H           2.5376515     1.2494614     1.5027661
C           3.5190095     0.0893686     0.0050156
N           4.7079393    -0.2410861    -0.5779629
H           4.7066253    -0.9079150    -1.3416788
C           5.9808997     0.2670614    -0.2153945
C           0.3481884    -1.3921510    -1.1462969
H          -0.7009602    -1.3252922    -0.8577789
H           0.6943185    -2.4273765    -1.0621607
H           0.4670135    -1.0899126    -2.1920495
O           0.7457434     0.2049353     0.6319971
O           6.9775099    -0.1109305    -0.8199315
18
236_C7H7NO3_16-0-1-8 (15,) energy =    -551.3943873
C           1.1743587    -0.4185062    -0.2818538
O           2.4834233    -0.4189011    -0.7305576
C           5.9536752     1.1211157     0.9277177
H           6.9048445     1.4808977     1.3021813
C           4.7648550     1.4734917     1.5004492
H           4.7643287     2.1379415     2.3609296
C           3.5023073     1.0129280     1.0194898
H           2.5711962     1.3087159     1.4726937
C           3.5288390     0.1754620    -0.0600332
N           4.7118814    -0.1813987    -0.6383516
H           4.6946064    -0.8043467    -1.4380478
C           6.0008326     0.2405738    -0.2227664
C           0.3818892    -1.4200503    -1.0803854
H          -0.6717171    -1.3391107    -0.8123008
H           0.7404051    -2.4333207    -0.8686253
H           0.5136971    -1.2425178    -2.1522007
O           0.7531993     0.3000233     0.5850995
O           6.9904029    -0.1512498    -0.8300857
18
236_C7H7NO3_16-0-1-8 (30,) energy =    -551.3925346
C           1.1596849    -0.3526026    -0.3297603
O           2.4475569    -0.2561203    -0.8399120
C           5.9422196     1.0547949     0.9578027
H           6.8981535     1.3559832     1.3699109
C           4.7552848     1.4300521     1.5204739
H           4.7619091     2.0539172     2.4107873
C           3.4876551     1.0482661     0.9876800
H           2.5569317     1.3704629     1.4249416
C           3.5062792     0.2577636    -0.1266383
N           4.6861169    -0.1213936    -0.6955255
H           4.6624448    -0.7110894    -1.5198872
C           5.9812162     0.2282788    -0.2322379
C           0.4339176    -1.4736557    -1.0243064
H          -0.6170252    -1.4582016    -0.7345021
H           0.8807572    -2.4347423    -0.7468188
H           0.5286728    -1.3699911    -2.1097672
O           0.7019792     0.4016389     0.4856216
O           6.9680722    -0.1768069    -0.8351996
18
236_C7H7NO3_16-0-1-8 (45,) energy =    -551.3897416
C           1.1441706    -0.2436008    -0.4005558
O           2.4291157    -0.1226186    -0.9308246
C           5.9256449     1.0075333     0.9813597
H           6.8807383     1.2635473     1.4246584
C           4.7370149     1.3631370     1.5540552
H           4.7425846     1.9251705     2.4846407
C           3.4716764     1.0405200     0.9798040
H           2.5395235     1.3589657     1.4191803
C           3.4928033     0.3267424    -0.1851230
N           4.6724516    -0.0321832    -0.7644313
H           4.6500388    -0.5676453    -1.6250648
C           5.9675280     0.2645305    -0.2619797
C           0.5033204    -1.5044476    -0.9116456
H          -0.5483429    -1.5223708    -0.6242425
H           1.0181734    -2.3771322    -0.4942524
H           0.6000424    -1.5595957    -2.0006278
O           0.6297051     0.6007680     0.2793737
O           6.9551197    -0.1158715    -0.8794784
18
236_C7H7NO3_16-0-1-8 (60,) energy =    -551.3867488
C           1.1367241    -0.1230038    -0.5757225
O           2.4541793    -0.1007267    -1.0616979
C           5.8834320     0.9328213     1.0148375
H           6.8212892     1.1695724     1.5030783
C           4.6736670     1.2011691     1.5917274
H           4.6437866     1.6703884     2.5719690
C           3.4314238     0.9006054     0.9605864
H           2.4839632     1.1589435     1.4095179
C           3.4947201     0.3085082    -0.2703279
N           4.6939438     0.0376949    -0.8532537
H           4.7053032    -0.4072338    -1.7643077
C           5.9709532     0.3167957    -0.2930447
C           0.5412001    -1.4907042    -0.7533683
H          -0.5175568    -1.4697584    -0.4931362
H           1.0699592    -2.2088558    -0.1163486
H           0.6710235    -1.8205091    -1.7893545
O           0.5831559     0.8631789    -0.1813838
O           6.9798973     0.0240819    -0.9233094
18
236_C7H7NO3_16-0-1-8 (75,) energy =    -551.3845390
C           1.9049595    -0.7924954    -2.0517377
O           3.2764009    -0.5025853    -2.2289322
C           5.7651472     1.2061074     0.6015138
H           6.4736109     1.6326101     1.3015653
C           4.4204109     1.1865777     0.8464079
H           4.0413216     1.6142688     1.7712390
C           3.4773835     0.6316095    -0.0663329
H           2.4137713     0.6633854     0.1229736
C           3.9772979     0.0999828    -1.2241717
N           5.3132820     0.1152561    -1.4769086
H           5.6525375    -0.2900176    -2.3422984
C           6.3133305     0.6558810    -0.6208607
C           1.6830344    -2.2720767    -1.9274567
H           0.6149248    -2.4858148    -1.8747861
H           2.1871511    -2.6451475    -1.0286551
H           2.1301201    -2.7854037    -2.7853955
O           1.0763832     0.0682814    -2.0978316
O           7.4874494     0.6080349    -0.9666036
18
236_C7H7NO3_16-0-1-8 (90,) energy =    -551.3835642
C           1.1574010    -0.0312682    -0.8436684
O           2.4812109     0.0781508    -1.3402912
C           5.8035937     0.7645169     1.0265623
H           6.7135311     0.9242058     1.5925609
C           4.5650205     0.9746230     1.5654457
H           4.4817797     1.3167082     2.5940198
C           3.3615393     0.7715711     0.8304384
H           2.3904598     0.9880682     1.2548053
C           3.4894289     0.3425673    -0.4639774
N           4.7174810     0.1293725    -1.0070899
H           4.7795247    -0.1887978    -1.9679781
C           5.9619639     0.3184219    -0.3424823
C           0.7961698    -1.4566927    -0.5390093
H          -0.2319773    -1.5123164    -0.1795567
H           1.4822083    -1.8600894     0.2139535
H           0.9116672    -2.0641567    -1.4432640
O           0.4541606     0.9318011    -0.7774260
O           7.0036271     0.0941907    -0.9463083
18
236_C7H7NO3_16-0-1-8 (105,) energy =    -551.3836471
C           1.1248339     0.0005053    -0.9220156
O           2.4403225     0.2078388    -1.4088436
C           5.7560163     0.6641209     1.0217198
H           6.6637360     0.7691291     1.6038835
C           4.5195784     0.9073917     1.5509807
H           4.4355241     1.2213096     2.5883806
C           3.3206205     0.7766342     0.7919348
H           2.3514302     1.0224329     1.2060568
C           3.4500988     0.3815732    -0.5130307
N           4.6762523     0.1336839    -1.0458761
H           4.7392433    -0.1554230    -2.0159182
C           5.9170652     0.2549508    -0.3592309
C           0.8934054    -1.4135512    -0.4657048
H          -0.1115525    -1.5082612    -0.0528972
H           1.6390373    -1.7017218     0.2817156
H           1.0067247    -2.0894046    -1.3210805
O           0.3249507     0.8852704    -0.9821991
O           6.9586118     0.0095465    -0.9544290
18
236_C7H7NO3_16-0-1-8 (120,) energy =    -551.3842964
C           1.0865461     0.0066565    -0.9664733
O           2.3881006     0.3465605    -1.4043632
C           5.7162598     0.6041228     1.0385674
H           6.6265551     0.6630835     1.6232401
C           4.4888645     0.8764439     1.5743290
H           4.4146897     1.1665110     2.6193583
C           3.2877366     0.8075740     0.8100377
H           2.3256574     1.0755282     1.2277900
C           3.4047442     0.4401286    -0.5035655
N           4.6222344     0.1620575    -1.0421611
H           4.6759881    -0.1001485    -2.0204411
C           5.8655785     0.2258615    -0.3531617
C           0.9786580    -1.3860835    -0.4030928
H          -0.0163742    -1.5301619     0.0193257
H           1.7433804    -1.5706825     0.3555821
H           1.1352067    -2.1059748    -1.2152678
O           0.1926407     0.7756856    -1.1581692
O           6.8996871    -0.0377688    -0.9531245
18
236_C7H7NO3_16-0-1-8 (135,) energy =    -551.3851308
C           1.0216504     0.0215932    -1.0417317
O           2.3021687     0.5157518    -1.3635557
C           5.6078242     0.5508304     1.1254706
H           6.5122963     0.5560450     1.7221202
C           4.3881916     0.8725651     1.6509904
H           4.3140798     1.1474119     2.7000819
C           3.1961781     0.8753803     0.8687056
H           2.2404037     1.1778211     1.2774021
C           3.3130433     0.5243800    -0.4483558
N           4.5233677     0.1977699    -0.9770330
H           4.5783735    -0.0430093    -1.9608209
C           5.7586413     0.1912629    -0.2716797
C           1.0048181    -1.3458238    -0.4054562
H          -0.0149558    -1.5812184    -0.0996431
H           1.6801789    -1.4082978     0.4504873
H           1.3380071    -2.0818368    -1.1469489
O           0.0684075     0.6582013    -1.3811617
O           6.7882534    -0.1083149    -0.8620602
18
236_C7H7NO3_16-0-1-8 (150,) energy =    -551.3861253
C           1.0454049     0.0291967    -1.0726895
O           2.2544587     0.7065619    -1.2956778
C           5.6529905     0.4408503     1.0558027
H           6.5778592     0.3706748     1.6160993
C           4.4793024     0.8293418     1.6371408
H           4.4635120     1.0799379     2.6947175
C           3.2619786     0.9315714     0.9008349
H           2.3421439     1.2807454     1.3522913
C           3.3055516     0.6096518    -0.4260337
N           4.4710632     0.2184404    -1.0113278
H           4.4749501     0.0157100    -2.0052970
C           5.7284241     0.1114167    -0.3557287
C           1.1475250    -1.3061087    -0.3734338
H           0.1946089    -1.8230350    -0.4904973
H           1.3566917    -1.1753945     0.6919604
H           1.9574762    -1.9083430    -0.7968106
O           0.0417567     0.5282395    -1.4914615
O           6.7148136    -0.2355987    -0.9918433
18
236_C7H7NO3_16-0-1-8 (165,) energy =    -551.3870396
C           1.1063705    -0.0379567    -1.1360960
O           2.2266383     0.8006798    -1.2139470
C           5.6784512     0.4015094     1.0431451
H           6.6142385     0.2979508     1.5797250
C           4.5340270     0.8275359     1.6551971
H           4.5529736     1.0732839     2.7138266
C           3.3028324     0.9725393     0.9487031
H           2.4023083     1.3389086     1.4245060
C           3.3031509     0.6573515    -0.3789989
N           4.4408931     0.2317372    -0.9964536
H           4.4172876     0.0480568    -1.9939254
C           5.7085525     0.0757032    -0.3715729
C           1.2729872    -1.3297715    -0.3710583
H           0.4049659    -1.9559925    -0.5785788
H           1.3311246    -1.1397563     0.7047381
H           2.1901593    -1.8509690    -0.6623590
O           0.1125771     0.3177747    -1.7003139
O           6.6674068    -0.3014231    -1.0319936
18
236_C7H7NO3_16-0-1-8 (180,) energy =    -551.3873254
C           1.1089311    -0.0376265    -1.2033046
O           2.1414081     0.9051344    -1.1155840
C           5.6487044     0.3559828     1.0243512
H           6.5960785     0.2144069     1.5311406
C           4.5433714     0.8301943     1.6713606
H           4.6053571     1.0736822     2.7288468
C           3.2971008     1.0244083     1.0031226
H           2.4241257     1.4199608     1.5058676
C           3.2431241     0.7119998    -0.3231243
N           4.3428277     0.2389424    -0.9764300
H           4.2873479     0.0746751    -1.9761059
C           5.6221779     0.0321941    -0.3912797
C           1.2604346    -1.2962518    -0.3832212
H           0.4218060    -1.9523877    -0.6162352
H           1.2612129    -1.0659431     0.6864222
H           2.2030909    -1.8056827    -0.6078879
O           0.1887570     0.2232703    -1.9232222
O           6.5456988    -0.3778942    -1.0815863
