23
225_C9H11NO2_19-0-2-9 (-165,) energy =    -554.7767105
N           1.3408165    -0.8372346    -0.3943849
H           1.2316177     0.1610053    -0.2890769
C           2.6167653    -1.3445320    -0.3681840
C           5.7279455     1.5103429     0.4932754
H           6.5286783     2.2090984     0.7209248
C           4.6032230     1.4432260     1.3103236
H           4.5151528     2.0801066     2.1853388
C           3.5892507     0.5358728     0.9941495
H           2.7163146     0.4578013     1.6375419
C           3.6843475    -0.3086689    -0.1148409
C           4.8287988    -0.2264647    -0.9399993
O           4.8453548    -1.0390217    -2.0283259
C           5.9902391    -1.0353757    -2.8651578
H           5.7938864    -1.7815482    -3.6367138
H           6.8949668    -1.3162127    -2.3106325
H           6.1445174    -0.0558828    -3.3376730
C           5.8441691     0.6862230    -0.6292110
H           6.7241806     0.7633873    -1.2569839
O           2.8634681    -2.5376184    -0.4848591
C           0.1659679    -1.6850190    -0.3044303
H          -0.3340677    -1.5806918     0.6674114
H           0.5020555    -2.7159932    -0.4241358
H          -0.5524783    -1.4489526    -1.0975717
23
225_C9H11NO2_19-0-2-9 (-150,) energy =    -554.7742683
N           1.2902774    -0.7935825    -0.5245223
H           1.1908825     0.1993305    -0.3603640
C           2.5772424    -1.2878479    -0.4799096
C           5.6656762     1.5317178     0.5599526
H           6.4611329     2.2189662     0.8359308
C           4.5012222     1.4663756     1.3195796
H           4.3764026     2.0930627     2.1974186
C           3.4944042     0.5754111     0.9408920
H           2.5905825     0.5008895     1.5407347
C           3.6355801    -0.2574667    -0.1722153
C           4.8208815    -0.1766522    -0.9385901
O           4.8834096    -0.9756129    -2.0344593
C           6.0651288    -0.9680936    -2.8186423
H           5.8979748    -1.6999961    -3.6104309
H           6.9415674    -1.2656264    -2.2285318
H           6.2479462     0.0176042    -3.2673178
C           5.8288846     0.7210463    -0.5663109
H           6.7394238     0.7969230    -1.1490812
O           2.8324331    -2.4778947    -0.5996670
C           0.1516404    -1.6270470    -0.1658640
H          -0.0979150    -1.5432455     0.9010380
H           0.4174063    -2.6619135    -0.3857990
H          -0.7266519    -1.3510748    -0.7579907
23
225_C9H11NO2_19-0-2-9 (-135,) energy =    -554.7699657
N           1.2486700    -0.8076708    -0.6490924
H           1.1742934     0.1902714    -0.4917502
C           2.5525514    -1.2836838    -0.6382474
C           5.6273314     1.4823574     0.5693965
H           6.4187952     2.1540027     0.8914096
C           4.4301905     1.4209908     1.2770407
H           4.2757557     2.0349275     2.1591337
C           3.4283319     0.5523416     0.8392896
H           2.4984677     0.4829924     1.3984389
C           3.6066545    -0.2662319    -0.2796381
C           4.8256015    -0.1884616    -0.9935420
O           4.9250015    -0.9676973    -2.0998648
C           6.1388810    -0.9620773    -2.8337432
H           5.9964250    -1.6790340    -3.6437481
H           6.9860887    -1.2798601    -2.2124208
H           6.3515978     0.0284353    -3.2578677
C           5.8283232     0.6890082    -0.5628740
H           6.7637635     0.7627338    -1.1049937
O           2.8145334    -2.4673824    -0.7896063
C           0.1847652    -1.5877579    -0.0217302
H           0.1251835    -1.4080490     1.0612052
H           0.3972743    -2.6440737    -0.1930789
H          -0.7812306    -1.3453221    -0.4751659
23
225_C9H11NO2_19-0-2-9 (-120,) energy =    -554.7641928
N           1.2010037    -0.8141073    -0.7426252
H           1.1362308     0.1897864    -0.6085347
C           2.5292286    -1.2535676    -0.7853328
C           5.5623777     1.4530611     0.6436546
H           6.3424640     2.1076229     1.0234015
C           4.3286118     1.3885778     1.2853053
H           4.1333895     1.9832184     2.1724815
C           3.3426231     0.5433628     0.7734439
H           2.3840727     0.4749428     1.2812439
C           3.5706797    -0.2531609    -0.3534513
C           4.8274366    -0.1699505    -1.0010096
O           4.9799196    -0.9194851    -2.1203686
C           6.2290083    -0.9008535    -2.7926881
H           6.1225862    -1.5930091    -3.6293121
H           7.0424002    -1.2427126    -2.1398210
H           6.4678392     0.1000710    -3.1763778
C           5.8144694     0.6856516    -0.4958005
H           6.7776822     0.7624002    -0.9863437
O           2.8075211    -2.4192706    -1.0139299
C           0.2563239    -1.5341772     0.1154476
H           0.3911081    -1.2966320     1.1811878
H           0.4112560    -2.6051089    -0.0274452
H          -0.7699566    -1.2901051    -0.1747911
23
225_C9H11NO2_19-0-2-9 (-105,) energy =    -554.7575562
N           1.1211225    -0.7948733    -0.7654233
H           1.0590304     0.2150866    -0.6628508
C           2.4705807    -1.1947286    -0.9099925
C           5.5261281     1.4016314     0.6766885
H           6.3097527     2.0278986     1.0949168
C           4.2657126     1.3687809     1.2670249
H           4.0516655     1.9610383     2.1513930
C           3.2770509     0.5599244     0.7062302
H           2.2982462     0.5233803     1.1749672
C           3.5233611    -0.2363545    -0.4187582
C           4.8090345    -0.1808215    -1.0165784
O           4.9902364    -0.9165085    -2.1391375
C           6.2635125    -0.9137576    -2.7652132
H           6.1723615    -1.5894162    -3.6169347
H           7.0449559    -1.2846125    -2.0896252
H           6.5375314     0.0878727    -3.1224713
C           5.7995134     0.6394036    -0.4604952
H           6.7831555     0.6928307    -0.9117377
O           2.7446639    -2.3274746    -1.2635809
C           0.3525855    -1.4449005     0.3050403
H           0.6878851    -1.1609625     1.3144060
H           0.4539150    -2.5271571     0.1978882
H          -0.7054608    -1.1875149     0.1989099
23
225_C9H11NO2_19-0-2-9 (-90,) energy =    -554.7604511
N           1.0151391    -0.5044870    -0.3868012
H           0.2452168    -0.5027343    -1.0580397
C           2.1867967    -0.4624839    -1.2104564
C           5.5839110     1.4070685     0.6489943
H           6.4411194     1.8983980     1.1022893
C           4.3002273     1.6479607     1.1336822
H           4.1402699     2.3287254     1.9642829
C           3.2187015     1.0067080     0.5330270
H           2.2075965     1.1841633     0.8814130
C           3.3880550     0.1373700    -0.5541587
C           4.7039213    -0.1098230    -1.0284126
O           4.8399814    -0.9960087    -2.0441863
C           6.1374456    -1.2701997    -2.5484656
H           5.9914871    -1.9892700    -3.3560231
H           6.7867248    -1.7113410    -1.7804992
H           6.6133823    -0.3661361    -2.9495634
C           5.7903231     0.5331343    -0.4193550
H           6.7993185     0.3540976    -0.7709346
O           2.1278143    -0.7407607    -2.3957411
C           0.8809878    -1.7389630     0.4126602
H          -0.0446876    -1.6879062     0.9933715
H           1.7172641    -1.8121998     1.1149246
H           0.8657519    -2.6478789    -0.2060095
23
225_C9H11NO2_19-0-2-9 (-75,) energy =    -554.7653156
N           1.0101857    -0.5666142    -0.4762153
H           0.2282232    -0.6600911    -1.1244874
C           2.1490201    -0.3734266    -1.2929825
C           5.5515992     1.3613733     0.6860135
H           6.4115641     1.8234548     1.1640314
C           4.2642655     1.6360472     1.1412483
H           4.1045815     2.3156027     1.9729164
C           3.1780407     1.0311235     0.5093050
H           2.1646641     1.2389033     0.8359481
C           3.3516430     0.1679170    -0.5796021
C           4.6676555    -0.1145451    -1.0234778
O           4.7930239    -1.0019202    -2.0420414
C           6.0893566    -1.3017691    -2.5334769
H           5.9375430    -2.0092954    -3.3501707
H           6.7188387    -1.7656238    -1.7622324
H           6.5912766    -0.4051012    -2.9192842
C           5.7585566     0.4891328    -0.3844734
H           6.7700241     0.2816674    -0.7129965
O           2.0747475    -0.4615822    -2.5077582
C           1.0179027    -1.7232541     0.4349885
H           0.1129551    -1.7020330     1.0493615
H           1.8819605    -1.6570580     1.1019041
H           1.0628602    -2.6837126    -0.0979081
23
225_C9H11NO2_19-0-2-9 (-60,) energy =    -554.7695415
N           2.1106405    -2.1108632    -0.2456977
H           1.5668285    -2.8505394     0.1952549
C           2.7089009    -1.4010181     0.7910736
C           5.6497554     1.6978331     0.2173637
H           6.3977793     2.4782481     0.1038799
C           4.8825517     1.6203053     1.3784427
H           5.0221503     2.3345539     2.1841979
C           3.9385924     0.6053752     1.4947385
H           3.3454179     0.5001620     2.3968987
C           3.7196348    -0.3314582     0.4742562
C           4.5090442    -0.2410004    -0.6987752
O           4.3033135    -1.1674289    -1.6765642
C           5.1558398    -1.1703806    -2.8115973
H           4.8346894    -2.0194122    -3.4174605
H           6.2065833    -1.3047357    -2.5252156
H           5.0556702    -0.2479119    -3.3985876
C           5.4718668     0.7732420    -0.8107854
H           6.0866617     0.8459783    -1.6998908
O           2.5103354    -1.7270609     1.9581794
C           1.3204047    -1.4258997    -1.2734504
H           1.0797466    -2.1349952    -2.0712430
H           1.9042349    -0.6163338    -1.7125556
H           0.3832138    -1.0127715    -0.8740662
23
225_C9H11NO2_19-0-2-9 (-45,) energy =    -554.7724509
N           2.0380010    -2.0707990    -0.2186826
H           1.4718176    -2.8132466     0.1831337
C           2.7855903    -1.5003312     0.7934533
C           5.5701366     1.7313070     0.1809564
H           6.2794488     2.5450254     0.0540120
C           4.8146906     1.6305703     1.3476161
H           4.9269094     2.3595966     2.1443675
C           3.9208617     0.5718850     1.4839716
H           3.3427492     0.4486866     2.3940043
C           3.7382352    -0.3783497     0.4712295
C           4.5216434    -0.2712480    -0.7015693
O           4.3548512    -1.2325847    -1.6553200
C           5.2044657    -1.2236250    -2.7923398
H           4.9236363    -2.1017169    -3.3764536
H           6.2608862    -1.3001329    -2.5053705
H           5.0596512    -0.3217917    -3.4018146
C           5.4338556     0.7849958    -0.8348845
H           6.0430501     0.8725850    -1.7266959
O           2.7310496    -1.9458038     1.9366236
C           1.3334084    -1.3016955    -1.2415171
H           1.0215122    -1.9761016    -2.0448153
H           2.0005396    -0.5563535    -1.6733278
H           0.4426466    -0.7939913    -0.8444286
23
225_C9H11NO2_19-0-2-9 (-30,) energy =    -554.7741391
N           1.9217496    -2.0159906    -0.1173677
H           1.3503267    -2.7706286     0.2462637
C           2.7611708    -1.5383450     0.8579494
C           5.5199126     1.7030005     0.1898127
H           6.2234975     2.5186623     0.0449324
C           4.7802508     1.6124155     1.3673952
H           4.9000572     2.3513841     2.1538418
C           3.8922187     0.5513794     1.5288938
H           3.3265874     0.4370832     2.4481359
C           3.7017798    -0.4075315     0.5276270
C           4.4735446    -0.3156101    -0.6526791
O           4.3015928    -1.3009325    -1.5818562
C           5.1177457    -1.2931773    -2.7428108
H           4.8332312    -2.1811352    -3.3100466
H           6.1830840    -1.3523799    -2.4860685
H           4.9429807    -0.3995449    -3.3566074
C           5.3776393     0.7432562    -0.8132884
H           5.9771214     0.8216775    -1.7125983
O           2.7728744    -2.0419031     1.9786730
C           1.3575360    -1.2656954    -1.2296690
H           1.5327487    -1.7728686    -2.1849401
H           1.8166280    -0.2776517    -1.2793679
H           0.2769528    -1.1321211    -1.0934828
23
225_C9H11NO2_19-0-2-9 (-15,) energy =    -554.7749341
N           1.8525437    -1.9399406    -0.0550376
H           1.2958834    -2.7205628     0.2712211
C           2.7990169    -1.5687390     0.8600672
C           5.4967174     1.7198378     0.1754776
H           6.1854455     2.5466526     0.0228944
C           4.7643645     1.6237520     1.3570938
H           4.8760838     2.3692663     2.1385737
C           3.8943799     0.5487012     1.5306142
H           3.3357187     0.4331699     2.4541951
C           3.7157141    -0.4160164     0.5341603
C           4.4821408    -0.3206449    -0.6471345
O           4.3200687    -1.3222953    -1.5623167
C           5.1299343    -1.3159310    -2.7277354
H           4.8586341    -2.2160081    -3.2822288
H           6.1972876    -1.3530570    -2.4753738
H           4.9365828    -0.4334041    -3.3519731
C           5.3670144     0.7513674    -0.8215871
H           5.9612605     0.8333692    -1.7241670
O           2.8933199    -2.1475246     1.9398720
C           1.3733358    -1.2107625    -1.2155067
H           1.6711501    -1.6906350    -2.1549196
H           1.7764135    -0.1965418    -1.2063998
H           0.2797955    -1.1414000    -1.1843918
23
225_C9H11NO2_19-0-2-9 (0,) energy =    -554.7750059
N           1.7808325    -1.9098475     0.0160456
H           1.2609217    -2.7330796     0.2941879
C           2.8320247    -1.6480178     0.8494011
C           5.4639227     1.6972912     0.1862021
H           6.1390887     2.5356014     0.0360335
C           4.7339286     1.5866998     1.3677905
H           4.8342610     2.3324001     2.1506638
C           3.8807568     0.4970050     1.5411298
H           3.3244784     0.3734664     2.4654157
C           3.7194287    -0.4659071     0.5416738
C           4.4821857    -0.3557450    -0.6387204
O           4.3270172    -1.3610834    -1.5527237
C           5.1327370    -1.3458371    -2.7210379
H           4.8708865    -2.2493101    -3.2745508
H           6.2011440    -1.3697167    -2.4716614
H           4.9266344    -0.4658648    -3.3447956
C           5.3492653     0.7295860    -0.8142097
H           5.9406649     0.8232051    -1.7176553
O           3.0178693    -2.3162524     1.8627236
C           1.3551100    -1.2029185    -1.1768520
H           1.7063531    -1.6858047    -2.0965486
H           1.7415094    -0.1820733    -1.1557432
H           0.2610776    -1.1510056    -1.1980948
23
225_C9H11NO2_19-0-2-9 (15,) energy =    -554.7744496
N           1.7004098    -1.8290765     0.0675067
H           1.2055469    -2.6798878     0.3094373
C           2.8407111    -1.6715385     0.8093676
C           5.4492345     1.6980393     0.1764533
H           6.1202424     2.5404309     0.0307843
C           4.7099926     1.5847716     1.3518273
H           4.7992750     2.3327930     2.1338371
C           3.8607803     0.4903568     1.5210487
H           3.2957007     0.3694164     2.4405670
C           3.7173534    -0.4746059     0.5221759
C           4.4870301    -0.3609913    -0.6516659
O           4.3369523    -1.3706096    -1.5631641
C           5.1435467    -1.3543342    -2.7309186
H           4.8856697    -2.2593887    -3.2836989
H           6.2117295    -1.3740398    -2.4803032
H           4.9347941    -0.4757136    -3.3556961
C           5.3482558     0.7286925    -0.8244011
H           5.9445314     0.8252660    -1.7243999
O           3.0900988    -2.4139684     1.7534229
C           1.3318042    -1.1724006    -1.1739375
H           1.7128491    -1.6971402    -2.0584424
H           1.7273145    -0.1546512    -1.1801208
H           0.2404136    -1.1120704    -1.2369454
23
225_C9H11NO2_19-0-2-9 (30,) energy =    -554.7730707
N           1.6321719    -1.7591328     0.1351155
H           1.1497692    -2.6235469     0.3605669
C           2.8565536    -1.7115064     0.7592178
C           5.4367669     1.6889419     0.1773226
H           6.1027052     2.5369217     0.0413445
C           4.6785240     1.5727328     1.3399787
H           4.7475884     2.3242066     2.1207624
C           3.8337923     0.4721780     1.4987077
H           3.2504899     0.3551791     2.4075418
C           3.7220444    -0.4977579     0.5020446
C           4.5045113    -0.3777250    -0.6610534
O           4.3623583    -1.3875844    -1.5744613
C           5.1773095    -1.3683226    -2.7363356
H           4.9252323    -2.2728741    -3.2925592
H           6.2436243    -1.3864918    -2.4777142
H           4.9714786    -0.4888680    -3.3609143
C           5.3588335     0.7180074    -0.8246850
H           5.9651222     0.8196563    -1.7174982
O           3.1707484    -2.5379237     1.6066430
C           1.2926192    -1.1614483    -1.1484501
H           1.6714880    -1.7408882    -1.9993894
H           1.7103897    -0.1538510    -1.2033660
H           0.2039926    -1.0811669    -1.2255122
23
225_C9H11NO2_19-0-2-9 (45,) energy =    -554.7715608
N           1.4977784    -1.7549170     0.3906530
H           1.0692706    -2.6660453     0.5300613
C           2.8709048    -1.9125366     0.2688194
C           5.3102119     1.6270015     0.0769595
H           5.9539630     2.5022083     0.0470350
C           4.3160974     1.5215234     1.0462466
H           4.1768457     2.3065238     1.7834488
C           3.5016227     0.3872794     1.0636854
H           2.7282506     0.2808264     1.8191368
C           3.6739291    -0.6444377     0.1370752
C           4.6788157    -0.5218847    -0.8472993
O           4.7608545    -1.5351037    -1.7509548
C           5.7927443    -1.4981265    -2.7232538
H           5.6901045    -2.4197659    -3.2984385
H           6.7852656    -1.4710675    -2.2554288
H           5.6859265    -0.6364057    -3.3959538
C           5.4925784     0.6171470    -0.8713631
H           6.2652482     0.7255510    -1.6235467
O           3.3994054    -3.0053968     0.4121124
C           0.7076193    -0.8477857    -0.4394595
H           0.5198044    -1.2535558    -1.4436736
H           1.2334533     0.1025310    -0.5447499
H          -0.2548344    -0.6539754     0.0444889
23
225_C9H11NO2_19-0-2-9 (60,) energy =    -554.7692061
N           1.5163708    -1.6546344     0.5102299
H           1.1035707    -2.5663527     0.6977825
C           2.8633818    -1.8644849     0.1936761
C           5.3782120     1.6244115     0.0836833
H           6.0381439     2.4880357     0.0750765
C           4.3602536     1.5294340     1.0293057
H           4.2179342     2.3111282     1.7693937
C           3.5265508     0.4102616     1.0190110
H           2.7349811     0.3087523     1.7549959
C           3.7015695    -0.6207944     0.0900346
C           4.7313982    -0.5071246    -0.8729323
O           4.8204356    -1.5084839    -1.7864304
C           5.8681290    -1.4702133    -2.7416531
H           5.7634026    -2.3827801    -3.3306889
H           6.8534212    -1.4617504    -2.2580879
H           5.7822774    -0.5981944    -3.4039466
C           5.5644196     0.6188021    -0.8676667
H           6.3553746     0.7202447    -1.6014106
O           3.3443626    -2.9870895     0.1872858
C           0.6573957    -0.8479306    -0.3639865
H           0.4482523    -1.3419165    -1.3234247
H           1.1396278     0.1108401    -0.5671132
H          -0.2916437    -0.6508468     0.1437235
23
225_C9H11NO2_19-0-2-9 (75,) energy =    -554.7653155
N           1.5101778    -1.5742938     0.5960406
H           1.1425309    -2.4922733     0.8462669
C           2.8224986    -1.8151076     0.1257488
C           5.4220453     1.6119744     0.1096606
H           6.0997383     2.4617201     0.1242734
C           4.3758878     1.5337952     1.0258125
H           4.2277260     2.3150194     1.7652165
C           3.5215077     0.4321579     0.9867013
H           2.7074522     0.3410540     1.6979038
C           3.7007857    -0.6016619     0.0592779
C           4.7603304    -0.5025268    -0.8768051
O           4.8611912    -1.4962306    -1.7949745
C           5.9170295    -1.4500997    -2.7410062
H           5.8063457    -2.3494830    -3.3488627
H           6.8986607    -1.4629563    -2.2500632
H           5.8461724    -0.5638743    -3.3858368
C           5.6147616     0.6071876    -0.8405441
H           6.4284352     0.6961871    -1.5505043
O           3.2399290    -2.9523353    -0.0206450
C           0.5695707    -0.9167343    -0.3264938
H           0.3679318    -1.5155919    -1.2260502
H           0.9781479     0.0485224    -0.6380944
H          -0.3746073    -0.7329731     0.1946442
23
225_C9H11NO2_19-0-2-9 (90,) energy =    -554.7604512
N           1.5058921    -1.4827574     0.6549378
H           1.2031412    -2.4026821     0.9796004
C           2.7733812    -1.7381809     0.0375589
C           5.4847801     1.5986395     0.1300486
H           6.1853456     2.4289505     0.1686898
C           4.4126393     1.5432128     1.0178627
H           4.2659298     2.3236506     1.7583416
C           3.5308481     0.4665183     0.9478545
H           2.6947058     0.3912616     1.6337176
C           3.7030409    -0.5681607     0.0171694
C           4.7922870    -0.4911316    -0.8911849
O           4.9003731    -1.4775720    -1.8136388
C           5.9751786    -1.4391411    -2.7389474
H           5.8595771    -2.3296807    -3.3586965
H           6.9468761    -1.4753278    -2.2298102
H           5.9320728    -0.5446305    -3.3745064
C           5.6749953     0.5954171    -0.8213135
H           6.5101522     0.6668560    -1.5076971
O           3.0983432    -2.8699748    -0.2775027
C           0.4668185    -0.9955541    -0.2746027
H           0.2795065    -1.6899214    -1.1063924
H           0.7725379    -0.0307484    -0.6912463
H          -0.4640863    -0.8446867     0.2797919
23
225_C9H11NO2_19-0-2-9 (105,) energy =    -554.7575561
N           1.6254343    -1.8238428     0.3239641
H           2.0255243    -1.6107844     1.2344382
C           2.5226451    -1.4582293    -0.7073111
C           5.4430091     1.5971805     0.1474930
H           6.1679409     2.3852701     0.3334690
C           4.2133526     1.6080144     0.8001806
H           3.9616195     2.4026073     1.4958343
C           3.3037363     0.5811497     0.5463833
H           2.3391050     0.5971082     1.0447318
C           3.5835128    -0.4463158    -0.3626136
C           4.8466067    -0.4502792    -1.0091076
O           5.1049871    -1.4935058    -1.8332494
C           6.3448588    -1.5351910    -2.5218673
H           6.3092755    -2.4372404    -3.1344803
H           7.1926890    -1.6000264    -1.8269150
H           6.4739975    -0.6600044    -3.1714675
C           5.7650871     0.5746793    -0.7467818
H           6.7342004     0.5787847    -1.2313752
O           2.3314488    -1.8273563    -1.8519695
C           0.2676039    -1.2679938     0.2428846
H          -0.3698626    -1.7597113     0.9836991
H          -0.1359416    -1.4792897    -0.7498603
H           0.2325824    -0.1804584     0.4098166
23
225_C9H11NO2_19-0-2-9 (120,) energy =    -554.7641928
N           1.6686488    -1.7408016     0.3013506
H           2.0559176    -1.5008255     1.2082232
C           2.4831449    -1.3034540    -0.7496548
C           5.5229840     1.6075503     0.1738199
H           6.2791618     2.3613272     0.3768090
C           4.2804641     1.6766182     0.7978560
H           4.0499869     2.4838070     1.4864188
C           3.3292540     0.6926061     0.5231408
H           2.3509776     0.7520222     0.9930435
C           3.5865901    -0.3467319    -0.3768039
C           4.8583243    -0.4090626    -0.9968912
O           5.0778965    -1.4654567    -1.8177604
C           6.3226651    -1.5627962    -2.4912996
H           6.2540836    -2.4610065    -3.1068143
H           7.1579597    -1.6676401    -1.7860362
H           6.4998865    -0.6929474    -3.1367979
C           5.8182554     0.5708644    -0.7144003
H           6.7968887     0.5301906    -1.1780056
O           2.2187348    -1.5648799    -1.9116566
C           0.2332201    -1.4535250     0.2357057
H          -0.3069936    -2.0964886     0.9370153
H          -0.1146206    -1.6743739    -0.7750080
H           0.0037467    -0.4026414     0.4667657
23
225_C9H11NO2_19-0-2-9 (135,) energy =    -554.7699658
N           1.6718219    -1.6247252     0.3088352
H           2.0361013    -1.3673274     1.2183612
C           2.4276700    -1.1510549    -0.7547804
C           5.6099294     1.5968557     0.1864044
H           6.4045950     2.3083528     0.3949526
C           4.3672464     1.7362356     0.7979397
H           4.1751273     2.5573587     1.4818274
C           3.3650878     0.8057790     0.5153954
H           2.3852144     0.9194523     0.9725975
C           3.5759462    -0.2488108    -0.3774851
C           4.8459239    -0.3825012    -0.9864403
O           5.0105232    -1.4521917    -1.8047928
C           6.2500078    -1.6166394    -2.4746799
H           6.1350753    -2.5093011    -3.0914241
H           7.0763691    -1.7672617    -1.7670910
H           6.4763888    -0.7570909    -3.1186673
C           5.8560576     0.5432139    -0.6973941
H           6.8350790     0.4478481    -1.1521520
O           2.1127401    -1.3528377    -1.9178560
C           0.2132966    -1.6080282     0.2281191
H          -0.2115583    -2.3758439     0.8819421
H          -0.0684788    -1.8298177    -0.8022796
H          -0.2041863    -0.6304298     0.5084729
23
225_C9H11NO2_19-0-2-9 (150,) energy =    -554.7742681
N           1.6917787    -1.5073464     0.3331918
H           2.0282321    -1.2556035     1.2530348
C           2.4178806    -1.0037060    -0.7264376
C           5.6921545     1.6103299     0.2792844
H           6.5124769     2.2863968     0.5055490
C           4.4464104     1.7997001     0.8704084
H           4.2769388     2.6247707     1.5555956
C           3.4098337     0.9153389     0.5633321
H           2.4267474     1.0684244     1.0019569
C           3.5923692    -0.1436368    -0.3299204
C           4.8646077    -0.3280945    -0.9184937
O           4.9960976    -1.3997163    -1.7415540
C           6.2368990    -1.6107805    -2.3952883
H           6.0945725    -2.4944434    -3.0193355
H           7.0466592    -1.7991730    -1.6775616
H           6.5072316    -0.7574704    -3.0306282
C           5.9081127     0.5519981    -0.6071594
H           6.8895278     0.4178119    -1.0468028
O           2.0897190    -1.1728888    -1.8923186
C           0.2660506    -1.7730807     0.2065770
H          -0.0194382    -2.6363814     0.8160951
H           0.0645195    -1.9966201    -0.8419451
H          -0.3407984    -0.9082667     0.5088667
23
225_C9H11NO2_19-0-2-9 (165,) energy =    -554.7767103
N           1.6503489    -1.3672559     0.2908362
H           2.0036972    -1.1820347     1.2184136
C           2.3678458    -0.8861992    -0.7766684
C           5.7583821     1.5750656     0.2327803
H           6.6112331     2.2084007     0.4625406
C           4.5176329     1.8350613     0.8073221
H           4.3851220     2.6741063     1.4836891
C           3.4387985     1.0046463     0.4945795
H           2.4594423     1.2108605     0.9192783
C           3.5760722    -0.0707037    -0.3869058
C           4.8425470    -0.3276246    -0.9590413
O           4.9266155    -1.4121155    -1.7725236
C           6.1616446    -1.6920283    -2.4107754
H           5.9805409    -2.5716494    -3.0305266
H           6.9529113    -1.9168246    -1.6828772
H           6.4829922    -0.8586032    -3.0487908
C           5.9274679     0.4991153    -0.6425879
H           6.9052491     0.3093896    -1.0697057
O           2.0279311    -1.0557840    -1.9401237
C           0.3043470    -1.8925079     0.1505501
H           0.2137179    -2.8785118     0.6204515
H           0.1046138    -1.9886249    -0.9176847
H          -0.4393907    -1.2193114     0.5964793
23
225_C9H11NO2_19-0-2-9 (180,) energy =    -554.7775020
N           1.3304493    -0.8538224    -0.1882462
H           1.2246299     0.1502177    -0.2032181
C           2.6044614    -1.3647717    -0.2296341
C           5.7348676     1.5061892     0.4991416
H           6.5395112     2.2115003     0.6898098
C           4.6459904     1.4350193     1.3632782
H           4.5903709     2.0755953     2.2382570
C           3.6264579     0.5187939     1.0946479
H           2.7805825     0.4365599     1.7722009
C           3.6812190    -0.3300887    -0.0140839
C           4.7886530    -0.2435486    -0.8876170
O           4.7653953    -1.0590814    -1.9741376
C           5.8793826    -1.0574935    -2.8515637
H           5.6598434    -1.8122974    -3.6083802
H           6.8050522    -1.3278767    -2.3273017
H           6.0112086    -0.0819291    -3.3389624
C           5.8096011     0.6778095    -0.6235944
H           6.6615226     0.7585382    -1.2885624
O           2.8414224    -2.5562060    -0.3780700
C           0.1561247    -1.6860576    -0.3727267
H          -0.5936515    -1.4773369     0.3988251
H           0.4783828    -2.7252076    -0.2931813
H          -0.3004304    -1.5341249    -1.3594236
