19
224_C8H9NO_15-0-2-9 (-165,) energy =    -440.2604759
N           1.2114406    -0.8447312    -0.2442993
H           1.0548761     0.0296307     0.2337269
C           2.4974955    -1.1836908    -0.5746395
C           5.6875504     1.4438232     0.6453656
H           6.5056255     2.0957593     0.9398634
C           4.4876853     1.4632399     1.3577914
H           4.3719948     2.1213613     2.2147019
C           3.4357010     0.6286532     0.9783430
H           2.5227110     0.6326838     1.5685936
C           3.5742448    -0.2358934    -0.1164371
C           4.7903638    -0.2627446    -0.8127051
H           4.8909515    -0.9550410    -1.6420354
C           5.8373194     0.5761865    -0.4398474
H           6.7726761     0.5522655    -0.9924371
O           2.7715776    -2.2056167    -1.1984699
C           0.1140971    -1.7916829    -0.3286233
H          -0.2258787    -2.1016853     0.6680641
H           0.4794691    -2.6649218    -0.8703444
H          -0.7347897    -1.3634409    -0.8734319
19
224_C8H9NO_15-0-2-9 (-150,) energy =    -440.2578874
N           1.1867488    -0.7881522    -0.3762797
H           1.0452151     0.0706540     0.1365202
C           2.4878058    -1.1317714    -0.6642366
C           5.6870430     1.4107427     0.7035779
H           6.5084256     2.0382460     1.0390180
C           4.4544937     1.4684770     1.3552087
H           4.3154027     2.1318768     2.2045005
C           3.3975609     0.6660028     0.9236892
H           2.4569975     0.7032636     1.4675424
C           3.5638854    -0.2057664    -0.1614852
C           4.8118929    -0.2687301    -0.7975990
H           4.9320759    -0.9644383    -1.6214487
C           5.8643123     0.5377598    -0.3734281
H           6.8245958     0.4850803    -0.8792772
O           2.7722337    -2.1616831    -1.2680198
C           0.1613157    -1.8083551    -0.2069485
H           0.0833215    -2.1393998     0.8378576
H           0.4346949    -2.6614347    -0.8289779
H          -0.8117897    -1.4275695    -0.5322713
19
224_C8H9NO_15-0-2-9 (-135,) energy =    -440.2535945
N           1.1714282    -0.7452029    -0.5124564
H           1.0485788     0.1329090    -0.0245261
C           2.4887421    -1.0768307    -0.7829862
C           5.6778926     1.3704540     0.7693024
H           6.4979505     1.9708900     1.1539384
C           4.4200683     1.4408261     1.3689270
H           4.2591399     2.0877975     2.2269458
C           3.3652240     0.6732543     0.8730616
H           2.4021576     0.7218741     1.3746689
C           3.5595850    -0.1779827    -0.2238051
C           4.8322047    -0.2523990    -0.8091944
H           4.9734179    -0.9303060    -1.6445303
C           5.8821037     0.5197711    -0.3210223
H           6.8617068     0.4582895    -0.7871931
O           2.7837490    -2.1018650    -1.3866245
C           0.2360200    -1.7856209    -0.0914242
H           0.3229076    -2.0084385     0.9814056
H           0.4576832    -2.6901647    -0.6594585
H          -0.7909774    -1.4772598    -0.3087171
19
224_C8H9NO_15-0-2-9 (-120,) energy =    -440.2480115
N           1.1226334    -0.7305660    -0.6453614
H           1.0131497     0.1678762    -0.1882649
C           2.4571035    -1.0225566    -0.9336955
C           5.6337230     1.3007984     0.8216363
H           6.4506705     1.8684446     1.2590550
C           4.3509864     1.3934566     1.3624726
H           4.1670082     2.0261300     2.2264459
C           3.3003297     0.6679941     0.7989573
H           2.3153195     0.7356338     1.2530528
C           3.5238205    -0.1640063    -0.3073692
C           4.8204567    -0.2580743    -0.8358951
H           4.9818851    -0.9176470    -1.6821073
C           5.8665971     0.4712146    -0.2793744
H           6.8651876     0.3935811    -0.7006595
O           2.7600479    -2.0134874    -1.5848125
C           0.3140082    -1.7682977     0.0011645
H           0.5657004    -1.8936094     1.0642691
H           0.4893197    -2.7128606    -0.5166040
H          -0.7467906    -1.5161617    -0.0862340
19
224_C8H9NO_15-0-2-9 (-105,) energy =    -440.2419326
N           1.0956608    -0.7235163    -0.7528295
H           0.9766172     0.2054717    -0.3585502
C           2.4496061    -0.9729764    -1.0569081
C           5.5887640     1.2468054     0.8874311
H           6.3952437     1.7886018     1.3742530
C           4.2857637     1.3487149     1.3756381
H           4.0752461     1.9634485     2.2464505
C           3.2485655     0.6567484     0.7488559
H           2.2446212     0.7343834     1.1568719
C           3.5058969    -0.1514081    -0.3680812
C           4.8222571    -0.2525863    -0.8451941
H           5.0079723    -0.8909180    -1.7026100
C           5.8553501     0.4431002    -0.2253719
H           6.8696038     0.3600497    -0.6062535
O           2.7627193    -1.9184430    -1.7633518
C           0.4314820    -1.7114778     0.1100787
H           0.8354166    -1.7279927     1.1336270
H           0.5570815    -2.7023764    -0.3316368
H          -0.6383090    -1.4881625     0.1538826
19
224_C8H9NO_15-0-2-9 (-90,) energy =    -440.2446132
N           1.0487969    -0.5020227    -0.5590054
H           0.4155415    -0.5640937    -1.3579213
C           2.3465256    -0.6751626    -1.1285583
C           5.6578103     1.0831181     0.9545848
H           6.5040874     1.5295238     1.4702717
C           4.3567507     1.3617716     1.3784659
H           4.1889152     2.0288787     2.2196429
C           3.2693265     0.7919139     0.7168185
H           2.2532523     1.0197215     1.0206274
C           3.4799567    -0.0618997    -0.3757233
C           4.7900543    -0.3349058    -0.7986324
H           4.9334611    -0.9915645    -1.6506950
C           5.8731478     0.2350963    -0.1365666
H           6.8855909     0.0213132    -0.4681437
O           2.4940660    -1.1687008    -2.2361820
C           0.6490072    -1.5699056     0.3822131
H          -0.3600672    -1.3592686     0.7474752
H           1.3264333    -1.5749537     1.2415396
H           0.6626878    -2.5685797    -0.0771303
19
224_C8H9NO_15-0-2-9 (-75,) energy =    -440.2490610
N           1.0519489    -0.5723290    -0.6453254
H           0.3984097    -0.7358649    -1.4109055
C           2.3373103    -0.6264426    -1.2263332
C           5.6199892     1.0288409     0.9915320
H           6.4592707     1.4505374     1.5384083
C           4.3125776     1.3276514     1.3806528
H           4.1328438     1.9883059     2.2245036
C           3.2340319     0.7865523     0.6810637
H           2.2154917     1.0350402     0.9609468
C           3.4589226    -0.0553922    -0.4175511
C           4.7745806    -0.3423956    -0.8094837
H           4.9301386    -0.9825080    -1.6719983
C           5.8496383     0.1940286    -0.1062591
H           6.8666870    -0.0342866    -0.4131976
O           2.4954477    -0.9811044    -2.3863315
C           0.7513641    -1.5241021     0.4398291
H          -0.2441341    -1.3077500     0.8381482
H           1.4752346    -1.4027930     1.2497032
H           0.7795813    -2.5702886     0.1038765
19
224_C8H9NO_15-0-2-9 (-60,) energy =    -440.2523195
N           1.0303071    -0.6464901    -0.6942630
H           0.3679404    -0.8711606    -1.4339243
C           2.2920645    -0.5567912    -1.2888120
C           5.5812866     0.9688709     1.0176942
H           6.4225807     1.3593363     1.5842204
C           4.2763175     1.2984285     1.3895232
H           4.1002945     1.9537572     2.2383122
C           3.1950096     0.7945794     0.6664655
H           2.1803032     1.0699443     0.9368600
C           3.4137109    -0.0382623    -0.4401261
C           4.7270401    -0.3484599    -0.8194478
H           4.8806394    -0.9726562    -1.6939509
C           5.8052163     0.1454612    -0.0894110
H           6.8203137    -0.1052824    -0.3851549
O           2.4436454    -0.7686820    -2.4857444
C           0.8074578    -1.4868765     0.4896135
H          -0.1726036    -1.2557536     0.9177919
H           1.5670724    -1.2763768     1.2444241
H           0.8442652    -2.5598492     0.2538594
19
224_C8H9NO_15-0-2-9 (-45,) energy =    -440.2539681
N           1.0506623    -0.7786026    -0.7351495
H           0.3912707    -1.0485684    -1.4594746
C           2.2827104    -0.5327718    -1.3218690
C           5.5526245     0.9520858     1.0441248
H           6.3899947     1.3334609     1.6224639
C           4.2458914     1.2913625     1.3998478
H           4.0640641     1.9466711     2.2474489
C           3.1696204     0.7969730     0.6622508
H           2.1547085     1.0811794     0.9242270
C           3.3942693    -0.0349676    -0.4437085
C           4.7098458    -0.3489649    -0.8105658
H           4.8713511    -0.9650905    -1.6893834
C           5.7828061     0.1317204    -0.0636402
H           6.7993074    -0.1253109    -0.3490230
O           2.4319893    -0.6307975    -2.5351153
C           0.8555970    -1.4889777     0.5287544
H          -0.0825572    -1.1707314     0.9954137
H           1.6727782    -1.2616752     1.2133664
H           0.8222755    -2.5780169     0.3854506
19
224_C8H9NO_15-0-2-9 (-30,) energy =    -440.2544803
N           1.0924634    -0.9358856    -0.7665979
H           0.4335566    -1.2313857    -1.4781709
C           2.2947646    -0.5822174    -1.3391180
C           5.5272630     0.9550414     1.0489605
H           6.3559760     1.3497499     1.6308018
C           4.2133611     1.2535920     1.4132556
H           4.0163945     1.8906082     2.2713698
C           3.1481635     0.7408288     0.6715097
H           2.1284074     0.9944465     0.9460110
C           3.3900968    -0.0680038    -0.4475803
C           4.7130069    -0.3386947    -0.8235522
H           4.8877451    -0.9339521    -1.7140314
C           5.7751682     0.1581497    -0.0721286
H           6.7971137    -0.0670120    -0.3649515
O           2.4481314    -0.6377178    -2.5558908
C           0.8566843    -1.4539268     0.5758329
H           0.1298873    -0.8420245     1.1249708
H           1.7895271    -1.4690262     1.1402994
H           0.4736511    -2.4803557     0.5263977
19
224_C8H9NO_15-0-2-9 (-15,) energy =    -440.2544113
N           1.1405672    -1.0573403    -0.8079139
H           0.4807749    -1.3514078    -1.5176332
C           2.3044073    -0.5888047    -1.3658560
C           5.5222239     0.9456241     1.0475289
H           6.3481917     1.3383224     1.6345957
C           4.2063605     1.2164392     1.4247362
H           4.0039885     1.8304883     2.2982268
C           3.1445440     0.7048236     0.6767752
H           2.1246582     0.9401846     0.9658332
C           3.3910004    -0.0744516    -0.4619032
C           4.7162816    -0.3144589    -0.8516520
H           4.8958055    -0.8837488    -1.7579144
C           5.7749565     0.1792744    -0.0936240
H           6.7983133    -0.0236912    -0.3975564
O           2.4531283    -0.5908528    -2.5853473
C           0.8467855    -1.4233647     0.5686113
H           0.2232002    -0.6764136     1.0783330
H           1.7722440    -1.5441675     1.1341741
H           0.3128391    -2.3795986     0.5844912
19
224_C8H9NO_15-0-2-9 (0,) energy =    -440.2537987
N           1.1920562    -1.1846660    -0.8216866
H           0.5253306    -1.4600195    -1.5324004
C           2.3060215    -0.6015852    -1.3707958
C           5.5234958     0.9427958     1.0412018
H           6.3504202     1.3369912     1.6259068
C           4.2079646     1.1991198     1.4284048
H           4.0060876     1.8042959     2.3081781
C           3.1452576     0.6845042     0.6831799
H           2.1267590     0.9106062     0.9836606
C           3.3897906    -0.0834079    -0.4635294
C           4.7150161    -0.3065450    -0.8644212
H           4.8946859    -0.8647658    -1.7774690
C           5.7743639     0.1886699    -0.1084262
H           6.7971766    -0.0032193    -0.4212469
O           2.4378591    -0.5499382    -2.5913222
C           0.8301915    -1.4152600     0.5658232
H           0.2224115    -0.6037282     0.9902075
H           1.7274231    -1.5321397     1.1764731
H           0.2521915    -2.3425452     0.6329065
19
224_C8H9NO_15-0-2-9 (15,) energy =    -440.2544113
N           1.4381826    -1.8349436    -0.0404572
H           1.0380843    -2.7636270    -0.0949691
C           2.8101110    -1.8748483    -0.0800600
C           5.1951180     1.6960009     0.2265268
H           5.8191435     2.5825081     0.3025472
C           4.0370629     1.5888171     0.9975926
H           3.7628419     2.3848228     1.6847421
C           3.2297807     0.4547091     0.8939394
H           2.3429069     0.3711911     1.5149030
C           3.5804005    -0.5871666     0.0243649
C           4.7626214    -0.4849530    -0.7224842
H           5.0464767    -1.3150584    -1.3612192
C           5.5567943     0.6554709    -0.6336380
H           6.4642635     0.7298398    -1.2267636
O           3.3968860    -2.9476146    -0.1990072
C           0.5323713    -0.7081005    -0.1980453
H          -0.2813155    -0.9877626    -0.8758633
H           1.0583225     0.1424183    -0.6349901
H           0.0879347    -0.3895160     0.7546302
19
224_C8H9NO_15-0-2-9 (30,) energy =    -440.2544803
N           1.4268339    -1.8019756     0.0920440
H           1.0276543    -2.7321932     0.0357825
C           2.7942612    -1.8530028    -0.0689762
C           5.2023460     1.7001432     0.2333641
H           5.8314267     2.5830332     0.3099291
C           4.0611333     1.5845899     1.0286390
H           3.8058419     2.3707279     1.7341592
C           3.2482050     0.4548670     0.9255263
H           2.3737246     0.3598153     1.5625698
C           3.5766057    -0.5735983     0.0313695
C           4.7402153    -0.4626697    -0.7422108
H           5.0044022    -1.2826093    -1.4023032
C           5.5409989     0.6732498    -0.6521516
H           6.4348295     0.7550904    -1.2646744
O           3.3641095    -2.9270318    -0.2388946
C           0.5266906    -0.7009224    -0.2296746
H          -0.1603629    -0.9926915    -1.0331312
H           1.0985506     0.1621390    -0.5719424
H          -0.0703033    -0.3976898     0.6397269
19
224_C8H9NO_15-0-2-9 (45,) energy =    -440.2539681
N           1.4378677    -1.7721431     0.2547120
H           1.0525830    -2.7117085     0.2215687
C           2.7958705    -1.8364180    -0.0178905
C           5.2245785     1.7046995     0.2207176
H           5.8573737     2.5861685     0.2815005
C           4.1078031     1.5880299     1.0504164
H           3.8761137     2.3718890     1.7665191
C           3.2907376     0.4599540     0.9686919
H           2.4364567     0.3582388     1.6314959
C           3.5909408    -0.5650948     0.0604564
C           4.7288104    -0.4528733    -0.7498395
H           4.9696207    -1.2690366    -1.4235629
C           5.5344526     0.6812027    -0.6790373
H           6.4090236     0.7646544    -1.3185252
O           3.3451403    -2.9130494    -0.2253210
C           0.5305750    -0.7484445    -0.2639373
H           0.1523574    -1.0048688    -1.2633625
H           1.0488561     0.2080308    -0.3323847
H          -0.3234303    -0.6292620     0.4110853
19
224_C8H9NO_15-0-2-9 (60,) energy =    -440.2523195
N           1.4541631    -1.7282711     0.3864412
H           1.0889655    -2.6784575     0.3954831
C           2.7823738    -1.8048872    -0.0419890
C           5.2651217     1.6925177     0.2239454
H           5.9090911     2.5654404     0.2910310
C           4.1401430     1.5903938     1.0448007
H           3.9129388     2.3774895     1.7587624
C           3.3097895     0.4729384     0.9569942
H           2.4492175     0.3781778     1.6119786
C           3.6048474    -0.5549772     0.0501694
C           4.7469357    -0.4547202    -0.7563814
H           4.9764090    -1.2706323    -1.4343187
C           5.5683083     0.6670168    -0.6761967
H           6.4479412     0.7410150    -1.3098606
O           3.2851583    -2.8772767    -0.3545753
C           0.5053405    -0.8020918    -0.2455416
H           0.2275315    -1.1165506    -1.2614860
H           0.9420121     0.1963863    -0.3040495
H          -0.4019744    -0.7428120     0.3631787
19
224_C8H9NO_15-0-2-9 (75,) energy =    -440.2490610
N           1.4815244    -1.6674753     0.4490383
H           1.1563089    -2.6321034     0.5098491
C           2.7712522    -1.7376522    -0.1204610
C           5.3300965     1.6887125     0.2632178
H           5.9913848     2.5459365     0.3589234
C           4.1850927     1.5985190     1.0574840
H           3.9585862     2.3802326     1.7775335
C           3.3343777     0.4999496     0.9354048
H           2.4569897     0.4097931     1.5675176
C           3.6282887    -0.5192513     0.0182100
C           4.7857313    -0.4274149    -0.7684473
H           5.0064224    -1.2331583    -1.4612287
C           5.6303777     0.6727533    -0.6491711
H           6.5242250     0.7394229    -1.2634343
O           3.2126330    -2.7881387    -0.5654884
C           0.4627957    -0.8725451    -0.2609346
H           0.2255560    -1.2800293    -1.2538295
H           0.8152194     0.1545431    -0.3853843
H          -0.4517931    -0.8480551     0.3385737
19
224_C8H9NO_15-0-2-9 (90,) energy =    -440.2446132
N           1.4722842    -1.5816330     0.5193921
H           1.2145407    -2.5592108     0.6644506
C           2.7239894    -1.6488862    -0.1641123
C           5.3962933     1.6740294     0.2970419
H           6.0844860     2.5075297     0.4113391
C           4.2360419     1.6162331     1.0719968
H           4.0230315     2.4005101     1.7933257
C           3.3527683     0.5465213     0.9286414
H           2.4607428     0.4772651     1.5419089
C           3.6278835    -0.4735250     0.0062383
C           4.7975270    -0.4109290    -0.7669078
H           4.9978188    -1.2131745    -1.4698032
C           5.6770234     0.6575925    -0.6217445
H           6.5816814     0.7012855    -1.2220546
O           3.0850242    -2.6691026    -0.7306730
C           0.3807987    -0.9681204    -0.2669663
H           0.1955527    -1.4901279    -1.2165587
H           0.6282300     0.0746457    -0.4878510
H          -0.5349156    -0.9797618     0.3308189
19
224_C8H9NO_15-0-2-9 (105,) energy =    -440.2419326
N           1.5031530    -1.7662871     0.2875014
H           1.5978054    -1.3502953     1.2098017
C           2.6737571    -1.5753228    -0.4747838
C           5.4239029     1.6033702     0.4711573
H           6.1246733     2.4053480     0.6872609
C           4.1720693     1.5861902     1.0869154
H           3.8922119     2.3768004     1.7776720
C           3.2728756     0.5546391     0.8134093
H           2.2959719     0.5707621     1.2886017
C           3.6137678    -0.4661101    -0.0858953
C           4.8730047    -0.4336910    -0.7055325
H           5.1180057    -1.2234538    -1.4079348
C           5.7727309     0.5903002    -0.4273687
H           6.7461007     0.6024951    -0.9101535
O           2.8556715    -2.2102228    -1.5018278
C           0.2467618    -1.3141338    -0.3280071
H          -0.5941037    -1.6439210     0.2887802
H           0.1526373    -1.7779182    -1.3122898
H           0.1958843    -0.2212672    -0.4469234
19
224_C8H9NO_15-0-2-9 (120,) energy =    -440.2480127
N           1.4857785    -1.6605319     0.2738326
H           1.5549474    -1.1913803     1.1701152
C           2.6145549    -1.4615137    -0.5233317
C           5.5065789     1.5638374     0.5018672
H           6.2441973     2.3263220     0.7374396
C           4.2461259     1.6043136     1.0986238
H           3.9959524     2.4017784     1.7929186
C           3.2994402     0.6232233     0.8003034
H           2.3155266     0.6890691     1.2570477
C           3.6014439    -0.4042498    -0.1047628
C           4.8683297    -0.4280393    -0.7078809
H           5.0821931    -1.2196398    -1.4183983
C           5.8155796     0.5448839    -0.4042300
H           6.7949685     0.5126640    -0.8737595
O           2.7469111    -2.0474591    -1.5894508
C           0.1672614    -1.4637160    -0.3358605
H          -0.6025119    -1.9111012     0.2995851
H           0.1560872    -1.9705544    -1.3023288
H          -0.0687194    -0.4007051    -0.4894472
19
224_C8H9NO_15-0-2-9 (135,) energy =    -440.2535945
N           1.4683301    -1.5176367     0.2507790
H           1.5055419    -1.0214976     1.1320849
C           2.5647897    -1.3181274    -0.5717100
C           5.5902579     1.5400772     0.5449485
H           6.3630420     2.2586160     0.8047054
C           4.3227421     1.6397046     1.1194818
H           4.1016626     2.4404235     1.8199394
C           3.3309755     0.7148530     0.7896361
H           2.3424803     0.8299667     1.2267773
C           3.5949622    -0.3154280    -0.1237875
C           4.8681342    -0.3969064    -0.7070343
H           5.0525253    -1.1870464    -1.4274280
C           5.8602930     0.5195051    -0.3713982
H           6.8446547     0.4419935    -0.8249783
O           2.6628752    -1.8732939    -1.6599432
C           0.1297084    -1.5790429    -0.3314175
H          -0.5442802    -2.1270785     0.3337535
H           0.1972609    -2.1140705    -1.2796740
H          -0.2858698    -0.5783165    -0.5158221
19
224_C8H9NO_15-0-2-9 (150,) energy =    -440.2581222
N           1.2801461    -1.1687770     0.1758788
H           1.1370172    -0.2515337     0.5785571
C           2.5507315    -1.3896341    -0.3185823
C           5.5992469     1.5418428     0.5001012
H           6.3753108     2.2799106     0.6842945
C           4.5000221     1.4558611     1.3565873
H           4.4237095     2.1174757     2.2151702
C           3.5005723     0.5126614     1.1179365
H           2.6702004     0.4364711     1.8157640
C           3.5915430    -0.3554654     0.0199142
C           4.7112605    -0.2793062    -0.8188488
H           4.7789641    -0.9756032    -1.6479469
C           5.7037195     0.6702258    -0.5866280
H           6.5619832     0.7282341    -1.2505822
O           2.8037652    -2.3328542    -1.0599868
C           0.1303431    -1.6670041    -0.5729937
H          -0.7467335    -1.6994545     0.0794689
H           0.3566448    -2.6753885    -0.9202676
H          -0.0937753    -1.0396555    -1.4468585
19
224_C8H9NO_15-0-2-9 (165,) energy =    -440.2609990
N           1.2641332    -1.0541595     0.0455333
H           1.0879165    -0.1253060     0.4028487
C           2.5279797    -1.2958601    -0.4397033
C           5.6435556     1.5058701     0.5548685
H           6.4388229     2.2092851     0.7867747
C           4.5180016     1.4278988     1.3771397
H           4.4396337     2.0612514     2.2566523
C           3.4952285     0.5275967     1.0781215
H           2.6426817     0.4522686     1.7482971
C           3.5893895    -0.3041055    -0.0470957
C           4.7327757    -0.2352843    -0.8537885
H           4.8010764    -0.9034502    -1.7058770
C           5.7498138     0.6698873    -0.5595700
H           6.6283134     0.7218318    -1.1970320
O           2.7739311    -2.2487607    -1.1728001
C           0.1197460    -1.7478223    -0.5278034
H          -0.7239067    -1.6924565     0.1657727
H           0.3911141    -2.7923041    -0.6849073
H          -0.1810106    -1.3228933    -1.4953191
19
224_C8H9NO_15-0-2-9 (180,) energy =    -440.2615589
N           1.2721743    -0.9692859    -0.0554416
H           1.0816075    -0.0478251     0.3090099
C           2.5436117    -1.2532847    -0.4794491
C           5.6883960     1.4849182     0.5995733
H           6.4931959     2.1686766     0.8560992
C           4.5291380     1.4478664     1.3762440
H           4.4333165     2.0935102     2.2450542
C           3.4942744     0.5722311     1.0460658
H           2.6140011     0.5281675     1.6821880
C           3.6102153    -0.2759626    -0.0642648
C           4.7860849    -0.2467665    -0.8256342
H           4.8701319    -0.9272426    -1.6665661
C           5.8157531     0.6330286    -0.5007140
H           6.7201416     0.6531827    -1.1028148
O           2.8085489    -2.2493571    -1.1473901
C           0.1461296    -1.8253555    -0.3823279
H          -0.5374813    -1.8905694     0.4704713
H           0.5378170    -2.8164404    -0.6136707
H          -0.4108042    -1.4611362    -1.2560635
