25
177_C10H13NO_0-5-6-20 (-165,) energy =    -518.8768287
N           1.5192379    -1.5590308     0.4330911
C           1.0361230    -0.2237997     0.7447742
H           0.6425926     0.2920285    -0.1442313
H           1.8183421     0.3918797     1.1883415
H           0.2223433    -0.2989117     1.4755493
C           2.8340050    -1.8992170     0.2026315
C           3.8721955    -0.7652320     0.3166842
H           3.9853764    -0.5275718     1.3851575
H           3.4889085     0.1449020    -0.1560811
O           3.1681255    -3.0485750    -0.0595292
C           0.4896668    -2.5733219     0.2507415
H          -0.1987976    -2.2855119    -0.5555944
H          -0.0926558    -2.6999370     1.1726904
H           0.9760280    -3.5132315    -0.0053330
C           7.7376951    -1.6815880    -1.3935556
H           8.7124953    -1.9038867    -1.8197776
C           7.2617694    -2.4156056    -0.3040999
H           7.8656288    -3.2145861     0.1183336
C           6.0125180    -2.1310914     0.2443288
H           5.6425117    -2.7151751     1.0810213
C           5.2163670    -1.1068314    -0.2862960
C           5.7019158    -0.3791169    -1.3780066
H           5.0958897     0.4190703    -1.8021021
C           6.9530075    -0.6617661    -1.9305210
H           7.3116675    -0.0839056    -2.7784161
25
177_C10H13NO_0-5-6-20 (-150,) energy =    -518.8763299
N           1.5749785    -1.5155278     0.4359083
C           1.0975535    -0.1481180     0.5813352
H           0.9432953     0.3482109    -0.3883329
H           1.7807847     0.4551380     1.1806415
H           0.1358302    -0.1663240     1.1049917
C           2.8960302    -1.9008448     0.4158580
C           3.9581814    -0.7895248     0.5262494
H           4.1461085    -0.6374493     1.5995791
H           3.5793031     0.1609785     0.1428155
O           3.2249873    -3.0791633     0.3339352
C           0.5467875    -2.5301263     0.2406720
H          -0.0606134    -2.2964259    -0.6438426
H          -0.1176792    -2.5813540     1.1131267
H           1.0373722    -3.4921503     0.1018846
C           7.6684142    -1.6837762    -1.5126068
H           8.6034217    -1.9015777    -2.0221676
C           7.2734406    -2.4478015    -0.4116784
H           7.9002683    -3.2648064    -0.0636444
C           6.0760135    -2.1698621     0.2458398
H           5.7659968    -2.7762517     1.0901952
C           5.2519982    -1.1218531    -0.1872070
C           5.6567610    -0.3634513    -1.2914730
H           5.0281988     0.4542395    -1.6387383
C           6.8555640    -0.6394863    -1.9523523
H           7.1518514    -0.0376237    -2.8076654
25
177_C10H13NO_0-5-6-20 (-135,) energy =    -518.8760637
N           1.6224946    -1.5169338     0.4625408
C           1.1565817    -0.1453679     0.3127682
H           1.1566817     0.1858780    -0.7362450
H           1.7518244     0.5518520     0.9029185
H           0.1276434    -0.0855002     0.6825161
C           2.9296381    -1.9131879     0.6344752
C           4.0191435    -0.8330545     0.7595933
H           4.2915867    -0.8097454     1.8238343
H           3.6595166     0.1646876     0.5052691
O           3.2373167    -3.0977103     0.7248123
C           0.6110858    -2.5465798     0.2494431
H           0.1981250    -2.4814823    -0.7665854
H          -0.2112510    -2.4261214     0.9656556
H           1.0780955    -3.5200445     0.3878315
C           7.5319699    -1.6589961    -1.6344544
H           8.4162596    -1.8600739    -2.2335540
C           7.2045789    -2.4914997    -0.5614660
H           7.8336293    -3.3457102    -0.3243652
C           6.0730583    -2.2344377     0.2116640
H           5.8114079    -2.8935312     1.0321170
C           5.2477582    -1.1386757    -0.0774058
C           5.5838843    -0.3109955    -1.1550936
H           4.9550693     0.5454005    -1.3908588
C           6.7170213    -0.5665492    -1.9300504
H           6.9610776     0.0891632    -2.7619494
25
177_C10H13NO_0-5-6-20 (-120,) energy =    -518.8768909
N           1.7043127    -1.5170444     0.4596166
C           1.3329501    -0.2664857    -0.1832117
H           0.8829786    -0.4693610    -1.1646811
H           2.1957450     0.3764712    -0.3432393
H           0.5943593     0.2795708     0.4194920
C           2.9709966    -1.9053610     0.8300331
C           4.0833175    -0.8505379     0.9307366
H           4.4229462    -0.9309259     1.9712846
H           3.7311545     0.1738266     0.8015148
O           3.2148863    -3.0623094     1.1644655
C           0.6413679    -2.5147460     0.4950466
H           0.3845412    -2.8548239    -0.5179642
H          -0.2560513    -2.0796845     0.9514685
H           0.9814072    -3.3678646     1.0793630
C           7.4423054    -1.5654258    -1.7123675
H           8.2884097    -1.7401357    -2.3717878
C           7.0502844    -2.5442405    -0.7958153
H           7.5911504    -3.4856392    -0.7418055
C           5.9682644    -2.3234382     0.0556612
H           5.6526613    -3.0889312     0.7563544
C           5.2565227    -1.1162873     0.0007808
C           5.6555123    -0.1424286    -0.9225947
H           5.1167890     0.8019214    -0.9737475
C           6.7409628    -0.3615654    -1.7735015
H           7.0357930     0.4085829    -2.4817414
25
177_C10H13NO_0-5-6-20 (-105,) energy =    -518.8781738
N           1.5851442    -1.6826137    -0.1297130
C           1.7505259    -2.8932860    -0.9204635
H           1.4901660    -3.7608704    -0.3031671
H           2.7849464    -3.0214936    -1.2383776
H           1.0984148    -2.9011810    -1.8059212
C           2.4483565    -0.6149444    -0.1244680
C           3.5577549    -0.5647499    -1.1836509
H           3.5522178     0.4774624    -1.5234846
H           3.3432121    -1.1835819    -2.0578935
O           2.3320823     0.3141335     0.6721743
C           0.4528094    -1.6744554     0.7872111
H           0.5602448    -2.4585577     1.5487397
H          -0.4800210    -1.8520336     0.2368288
H           0.4133257    -0.7025438     1.2764908
C           7.4857235    -1.5202212     0.3801078
H           8.4728854    -1.7562657     0.7685981
C           6.6938836    -0.5552677     1.0081350
H           7.0645905    -0.0383456     1.8896162
C           5.4279711    -0.2471145     0.5115654
H           4.8070382     0.4949625     1.0037006
C           4.9320118    -0.9030051    -0.6246197
C           5.7315819    -1.8697129    -1.2462984
H           5.3636905    -2.3810459    -2.1339195
C           7.0007285    -2.1770912    -0.7503713
H           7.6072822    -2.9289631    -1.2487750
25
177_C10H13NO_0-5-6-20 (-90,) energy =    -518.8790914
N           1.6827709    -1.6392402    -0.1037963
C           1.9641844    -2.8867065    -0.7963531
H           1.8238649    -3.7219379    -0.1002214
H           2.9967158    -2.9229622    -1.1419596
H           1.2908059    -3.0439053    -1.6518623
C           2.4032797    -0.4789693    -0.2411232
C           3.5449449    -0.4492170    -1.2657111
H           3.6009040     0.5986648    -1.5783747
H           3.3192757    -1.0406796    -2.1579483
O           2.1637090     0.5235988     0.4289689
C           0.5423803    -1.6580159     0.8018109
H           0.7094073    -2.3695917     1.6213511
H          -0.3670081    -1.9574067     0.2642883
H           0.4138938    -0.6577133     1.2124622
C           7.3644220    -1.6394146     0.4021453
H           8.3244095    -1.9323361     0.8188324
C           6.5671930    -0.7005791     1.0623013
H           6.9066130    -0.2604035     1.9964071
C           5.3359065    -0.3216075     0.5295013
H           4.7138238     0.4055768     1.0436739
C           4.8803634    -0.8773198    -0.6751947
C           5.6858203    -1.8171935    -1.3293874
H           5.3504971    -2.2494605    -2.2703053
C           6.9204513    -2.1963248    -0.7968094
H           7.5326337    -2.9258652    -1.3207729
25
177_C10H13NO_0-5-6-20 (-75,) energy =    -518.8790038
N           1.7618842    -1.6041840    -0.0589553
C           2.1216358    -2.8790547    -0.6565035
H           2.1416631    -3.6515585     0.1218118
H           3.1130111    -2.8413313    -1.1043954
H           1.3923755    -3.1886842    -1.4200290
C           2.3379247    -0.3938059    -0.3600420
C           3.5262955    -0.3740068    -1.3318513
H           3.6265989     0.6774330    -1.6177758
H           3.3052602    -0.9373216    -2.2454670
O           1.9580930     0.6555800     0.1550403
C           0.6128750    -1.6323662     0.8351799
H           0.8056185    -2.3045132     1.6812261
H          -0.2814746    -1.9907473     0.3069821
H           0.4376645    -0.6219362     1.2011522
C           7.2545903    -1.7343408     0.4095639
H           8.1924229    -2.0676244     0.8457589
C           6.4280653    -0.8509786     1.1087784
H           6.7221641    -0.4930387     2.0920512
C           5.2249471    -0.4218571     0.5502092
H           4.5851410     0.2689096     1.0934162
C           4.8256407    -0.8709380    -0.7171359
C           5.6619252    -1.7541450    -1.4105908
H           5.3713007    -2.1037250    -2.3994728
C           6.8685905    -2.1837352    -0.8531086
H           7.5048151    -2.8687764    -1.4075482
25
177_C10H13NO_0-5-6-20 (-60,) energy =    -518.8778403
N           1.8279901    -1.5704481    -0.0212549
C           2.2606835    -2.8721798    -0.5011669
H           2.4156871    -3.5473157     0.3495069
H           3.2011818    -2.8028507    -1.0434224
H           1.5022032    -3.3243579    -1.1578320
C           2.2756104    -0.3591646    -0.4952575
C           3.5293080    -0.3330752    -1.3850414
H           3.6556049     0.7242098    -1.6364383
H           3.3331017    -0.8605886    -2.3273870
O           1.7354981     0.6984786    -0.1812941
C           0.6467776    -1.5883475     0.8306175
H           0.8231631    -2.2396788     1.6953162
H          -0.2293093    -1.9682076     0.2855129
H           0.4440410    -0.5719507     1.1642105
C           7.1915270    -1.8080565     0.4024141
H           8.1142733    -2.1681271     0.8492896
C           6.3258120    -0.9931499     1.1359851
H           6.5743418    -0.7145527     2.1567833
C           5.1415593    -0.5308070     0.5631855
H           4.4754410     0.1092771     1.1366634
C           4.7988403    -0.8772489    -0.7517614
C           5.6760656    -1.6914521    -1.4790130
H           5.4299243    -1.9623021    -2.5039436
C           6.8637884    -2.1545320    -0.9084290
H           7.5309081    -2.7855496    -1.4899775
25
177_C10H13NO_0-5-6-20 (-45,) energy =    -518.8761067
N           1.8721348    -1.5198275     0.0260016
C           2.3709775    -2.8378481    -0.3355818
H           2.6134388    -3.4105079     0.5680985
H           3.2727485    -2.7681739    -0.9394098
H           1.6108510    -3.3983755    -0.9001561
C           2.2298319    -0.3427201    -0.5923174
C           3.5507530    -0.2727934    -1.3813111
H           3.6892864     0.7988840    -1.5544110
H           3.3917984    -0.7226405    -2.3711584
O           1.5493653     0.6732003    -0.4808592
C           0.6418989    -1.5286750     0.8072544
H           0.7732602    -2.1780548     1.6803785
H          -0.2069207    -1.9061931     0.2184822
H           0.4184006    -0.5118904     1.1263378
C           7.1656056    -1.8880636     0.3807894
H           8.0781595    -2.2820057     0.8199212
C           6.2809188    -1.1333832     1.1547587
H           6.5046028    -0.9355567     2.1998773
C           5.1096889    -0.6274951     0.5916395
H           4.4289681    -0.0384375     1.2012714
C           4.7971312    -0.8698218    -0.7538826
C           5.6947561    -1.6238937    -1.5208377
H           5.4733867    -1.8142955    -2.5691786
C           6.8694276    -2.1304000    -0.9606420
H           7.5513259    -2.7135205    -1.5741438
25
177_C10H13NO_0-5-6-20 (-30,) energy =    -518.8740242
N           1.9308718    -1.5079711     0.0677409
C           2.4996987    -2.8273546    -0.1754830
H           2.7812756    -3.3024317     0.7721169
H           3.3874858    -2.7662191    -0.7999459
H           1.7636411    -3.4730114    -0.6770911
C           2.2261414    -0.3776842    -0.6626605
C           3.6020812    -0.2192652    -1.3427088
H           3.7281321     0.8671656    -1.3933342
H           3.4910904    -0.5492456    -2.3850907
O           1.4385841     0.5616263    -0.7273842
C           0.6505570    -1.5265623     0.7667787
H           0.7386166    -2.1694003     1.6493325
H          -0.1560582    -1.9163948     0.1289834
H           0.3902412    -0.5125854     1.0671945
C           7.1960040    -1.9587072     0.3386066
H           8.1042515    -2.3831042     0.7578093
C           6.3172557    -1.2365885     1.1497971
H           6.5414866    -1.0949323     2.2039121
C           5.1522173    -0.6907371     0.6121101
H           4.4742141    -0.1302840     1.2509428
C           4.8379168    -0.8611209    -0.7445593
C           5.7308344    -1.5818009    -1.5484054
H           5.5097709    -1.7152048    -2.6054851
C           6.8997065    -2.1281318    -1.0138761
H           7.5775400    -2.6842194    -1.6562898
25
177_C10H13NO_0-5-6-20 (-15,) energy =    -518.8718800
N           1.9238791    -1.4968832     0.0810998
C           2.5651361    -2.8032993    -0.0233731
H           2.8342585    -3.1796448     0.9709566
H           3.4681957    -2.7543283    -0.6255929
H           1.8764219    -3.5239578    -0.4883544
C           2.1947757    -0.4180109    -0.7327945
C           3.6141232    -0.1551419    -1.2877177
H           3.7122937     0.9305267    -1.1781770
H           3.5573979    -0.3278075    -2.3704919
O           1.3426058     0.4355208    -0.9590883
C           0.5940003    -1.5381256     0.6820428
H           0.6449498    -2.1234182     1.6064064
H          -0.1427156    -2.0041269     0.0118340
H           0.2635519    -0.5235071     0.9004136
C           7.1909956    -2.0240120     0.2834654
H           8.0947357    -2.4821141     0.6760884
C           6.3484624    -1.2946292     1.1263621
H           6.5966982    -1.1812498     2.1785305
C           5.1905498    -0.7044915     0.6216796
H           4.5399388    -0.1384694     1.2840253
C           4.8454423    -0.8379425    -0.7321127
C           5.7038410    -1.5640967    -1.5680427
H           5.4604284    -1.6666755    -2.6235527
C           6.8659769    -2.1548765    -1.0667324
H           7.5173541    -2.7137614    -1.7336157
25
177_C10H13NO_0-5-6-20 (0,) energy =    -518.8700279
N           1.8924855    -1.4892844     0.0732783
C           2.6106367    -2.7580702     0.1429200
H           2.8104796    -3.0301653     1.1866060
H           3.5566508    -2.7096967    -0.3872913
H           2.0022754    -3.5557480    -0.3078796
C           2.1794996    -0.4489847    -0.7834324
C           3.6278646    -0.0755157    -1.1898503
H           3.6841724     0.9780212    -0.8914356
H           3.6215121    -0.0599672    -2.2859653
O           1.3011570     0.3238888    -1.1539086
C           0.5116526    -1.5729375     0.5426790
H           0.5002793    -2.1039552     1.5004485
H          -0.1285602    -2.1156866    -0.1674722
H           0.1082537    -0.5690464     0.6679762
C           7.1988205    -2.0863864     0.2060208
H           8.0999496    -2.5828679     0.5555903
C           6.4304426    -1.3209914     1.0869052
H           6.7344720    -1.2178020     2.1253727
C           5.2767688    -0.6808581     0.6363047
H           4.6842992    -0.0843047     1.3263587
C           4.8614076    -0.7994526    -0.6989919
C           5.6486331    -1.5591061    -1.5748803
H           5.3516549    -1.6481960    -2.6177442
C           6.8056178    -2.2009580    -1.1278171
H           7.4016306    -2.7850756    -1.8242132
25
177_C10H13NO_0-5-6-20 (15,) energy =    -518.8718829
N           1.8946524    -1.6421271    -0.2080160
C           2.5851866    -2.3666953     0.8535018
H           1.9390994    -2.4367875     1.7407823
H           3.5067096    -1.8671083     1.1395404
H           2.8320459    -3.3846056     0.5281541
C           2.1719390    -0.3475524    -0.5910320
C           3.6087498     0.2227105    -0.5460813
H           3.6137105     0.9812937     0.2476057
H           3.6659307     0.7899620    -1.4816522
O           1.3048213     0.3664641    -1.0852174
C           0.5387578    -2.1190602    -0.4636294
H          -0.1470357    -1.8573677     0.3550442
H           0.5634535    -3.2094977    -0.5638111
H           0.1633793    -1.6684308    -1.3813958
C           7.1559512    -2.2391633    -0.2091917
H           8.0517267    -2.8495454    -0.1330647
C           6.9062166    -1.2361323     0.7274628
H           7.6089878    -1.0582843     1.5373109
C           5.7538782    -0.4533933     0.6254971
H           5.5695900     0.3302840     1.3574622
C           4.8304421    -0.6600839    -0.4076690
C           5.0999320    -1.6647475    -1.3498166
H           4.3982712    -1.8348016    -2.1629272
C           6.2478707    -2.4496199    -1.2500574
H           6.4371477    -3.2241809    -1.9888057
25
177_C10H13NO_0-5-6-20 (30,) energy =    -518.8740234
N           1.9012828    -1.6406632    -0.1960883
C           2.5232928    -2.2597866     0.9670772
H           1.8370391    -2.2317253     1.8265031
H           3.4428967    -1.7496587     1.2425242
H           2.7648182    -3.3088689     0.7572012
C           2.1990318    -0.3817802    -0.6701361
C           3.6026323     0.2247713    -0.4620228
H           3.5559993     0.8572287     0.4354474
H           3.6967807     0.9192765    -1.3031708
O           1.3877111     0.2565044    -1.3343442
C           0.5885763    -2.1808047    -0.5324459
H          -0.1693604    -1.9026955     0.2142958
H           0.6545164    -3.2735922    -0.5713410
H           0.2766543    -1.7900534    -1.4999490
C           7.1582086    -2.2452420    -0.2950265
H           8.0565231    -2.8557246    -0.2617714
C           6.9353494    -1.2682396     0.6752810
H           7.6610102    -1.1113401     1.4691225
C           5.7790548    -0.4862985     0.6291502
H           5.6154215     0.2764526     1.3877624
C           4.8256877    -0.6668362    -0.3814469
C           5.0664682    -1.6469083    -1.3560537
H           4.3407155    -1.7982905    -2.1512118
C           6.2186903    -2.4310111    -1.3121336
H           6.3853545    -3.1864795    -2.0756746
25
177_C10H13NO_0-5-6-20 (45,) energy =    -518.8761068
N           1.8803038    -1.6099413    -0.1399798
C           2.4399378    -2.1326363     1.0970417
H           1.7270739    -2.0104227     1.9262149
H           3.3669418    -1.6270660     1.3572246
H           2.6573271    -3.2026693     0.9910866
C           2.2351566    -0.4156612    -0.7259644
C           3.5945698     0.2218197    -0.3825471
H           3.5038849     0.7431559     0.5804628
H           3.7096985     1.0030939    -1.1401835
O           1.5188555     0.1262616    -1.5631078
C           0.6109740    -2.2079774    -0.5335405
H          -0.1923817    -1.9491711     0.1716443
H           0.7161117    -3.2988190    -0.5527819
H           0.3380798    -1.8400024    -1.5213366
C           7.1544196    -2.2493510    -0.3635732
H           8.0529631    -2.8604021    -0.3663563
C           6.9396170    -1.3198104     0.6541389
H           7.6712285    -1.2007444     1.4491059
C           5.7826591    -0.5377284     0.6550748
H           5.6245282     0.1879542     1.4504780
C           4.8222210    -0.6701637    -0.3561467
C           5.0532053    -1.6034003    -1.3771961
H           4.3226847    -1.7156076    -2.1745590
C           6.2065074    -2.3874109    -1.3802546
H           6.3665811    -3.1059794    -2.1799324
25
177_C10H13NO_0-5-6-20 (60,) energy =    -518.8778410
N           1.8643768    -1.6005909    -0.0744148
C           2.3598933    -2.0133281     1.2279083
H           1.6499154    -1.7447986     2.0246120
H           3.3244597    -1.5608082     1.4473926
H           2.4909579    -3.1023881     1.2461853
C           2.3045605    -0.5068613    -0.7830544
C           3.6049165     0.1841653    -0.3406152
H           3.4762771     0.6257791     0.6559796
H           3.7161177     1.0165651    -1.0418655
O           1.7189114    -0.1067727    -1.7859766
C           0.6390268    -2.2594020    -0.5053204
H          -0.1939984    -2.0307647     0.1749166
H           0.7863053    -3.3462807    -0.5159508
H           0.3885151    -1.9070073    -1.5045752
C           7.2001382    -2.2338840    -0.4359378
H           8.1058898    -2.8334277    -0.4670985
C           6.9559766    -1.3855955     0.6441474
H           7.6715799    -1.3190992     1.4595744
C           5.7898713    -0.6178200     0.6818031
H           5.6087495     0.0452668     1.5255727
C           4.8514098    -0.6846655    -0.3555666
C           5.1103382    -1.5366810    -1.4388837
H           4.3957588    -1.5910998    -2.2566385
C           6.2728121    -2.3057191    -1.4783173
H           6.4561265    -2.9608633    -2.3260152
25
177_C10H13NO_0-5-6-20 (75,) energy =    -518.8790040
N           1.8209701    -1.5889297    -0.0191988
C           2.2455588    -1.8878657     1.3380824
H           1.5705969    -1.4388120     2.0820568
H           3.2606915    -1.5403132     1.5214436
H           2.2374837    -2.9740710     1.4894387
C           2.3815277    -0.6372792    -0.8364096
C           3.6232005     0.1137809    -0.3352024
H           3.4705275     0.5108079     0.6747033
H           3.7121442     0.9716349    -1.0086376
O           1.9455211    -0.4050381    -1.9619027
C           0.6226351    -2.2833348    -0.4691386
H          -0.2309194    -2.0464314     0.1809669
H           0.7815646    -3.3690993    -0.4470446
H           0.4028239    -1.9646261    -1.4868293
C           7.2785791    -2.2083361    -0.5034811
H           8.1978913    -2.7857332    -0.5520515
C           6.9759155    -1.4645869     0.6369025
H           7.6589057    -1.4578413     1.4824554
C           5.7927552    -0.7242276     0.6962334
H           5.5669817    -0.1402984     1.5865223
C           4.8974172    -0.7152477    -0.3800900
C           5.2131407    -1.4633835    -1.5237336
H           4.5268578    -1.4577078    -2.3667010
C           6.3925844    -2.2041852    -1.5839721
H           6.6218166    -2.7784120    -2.4779251
25
177_C10H13NO_0-5-6-20 (90,) energy =    -518.8790919
N           1.7245781    -1.5711838     0.0400916
C           2.0790644    -1.7788853     1.4351064
H           1.4542464    -1.1780125     2.1122684
H           3.1280337    -1.5467890     1.6154879
H           1.9304386    -2.8350440     1.6890444
C           2.4198662    -0.7845011    -0.8441780
C           3.6160641     0.0190880    -0.3176143
H           3.4574343     0.3826647     0.7019274
H           3.6608992     0.8970870    -0.9703400
O           2.1156212    -0.7098577    -2.0330805
C           0.5370504    -2.2744222    -0.4249540
H          -0.3322329    -2.0018418     0.1878902
H           0.6790867    -3.3613357    -0.3590934
H           0.3573502    -1.9956872    -1.4621329
C           7.3667822    -2.1374737    -0.5786970
H           8.3093866    -2.6738318    -0.6479980
C           7.0068874    -1.5010299     0.6088370
H           7.6676383    -1.5377982     1.4711629
C           5.7942534    -0.8125931     0.6936225
H           5.5247365    -0.3106319     1.6209898
C           4.9274006    -0.7481106    -0.4038875
C           5.2986961    -1.3902076    -1.5944430
H           4.6286303    -1.3465899    -2.4483939
C           6.5079759    -2.0787045    -1.6794906
H           6.7815633    -2.5705021    -2.6094508
25
177_C10H13NO_0-5-6-20 (105,) energy =    -518.8781751
N           1.6285319    -1.5754713     0.1115472
C           1.8776470    -1.6937600     1.5404542
H           1.2613024    -0.9957056     2.1253099
H           2.9279889    -1.5249089     1.7757040
H           1.6314965    -2.7121052     1.8636902
C           2.4598100    -0.9609891    -0.7921516
C           3.6285908    -0.1208253    -0.2600703
H           3.4836516     0.2085219     0.7713894
H           3.6136731     0.7796616    -0.8851332
O           2.2688180    -1.0300091    -2.0046497
C           0.4445569    -2.2664555    -0.3819709
H          -0.4447155    -1.9248501     0.1628820
H           0.5384974    -3.3523289    -0.2453818
H           0.3348295    -2.0479047    -1.4429813
C           7.4838960    -2.0584431    -0.6657771
H           8.4532811    -2.5391516    -0.7673248
C           7.0882045    -1.5309253     0.5629926
H           7.7465462    -1.5979895     1.4253853
C           5.8417194    -0.9133345     0.6891325
H           5.5430780    -0.4970761     1.6494692
C           4.9766327    -0.8112208    -0.4069333
C           5.3832593    -1.3441848    -1.6389638
H           4.7109324    -1.2767280    -2.4885535
C           6.6264384    -1.9627599    -1.7650000
H           6.9274341    -2.3710237    -2.7264624
25
177_C10H13NO_0-5-6-20 (120,) energy =    -518.8768824
N           1.6177107    -1.5172236     0.1552316
C           1.6944700    -1.4746513     1.6071633
H           0.9753180    -0.7568886     2.0266143
H           2.6934768    -1.2120951     1.9498689
H           1.4571425    -2.4657300     2.0147584
C           2.5873891    -1.1064431    -0.7288405
C           3.7538082    -0.2480551    -0.2168664
H           3.6447999     0.0642686     0.8227104
H           3.6878978     0.6659252    -0.8211581
O           2.5021460    -1.3422395    -1.9319639
C           0.4426823    -2.1998375    -0.3731631
H          -0.4671036    -1.7515747     0.0454466
H           0.4560984    -3.2661695    -0.1089607
H           0.4411363    -2.1012153    -1.4572236
C           7.6627491    -2.0326159    -0.7808203
H           8.6461854    -2.4736706    -0.9207504
C           7.2449356    -1.6359061     0.4891901
H           7.9000982    -1.7665746     1.3467156
C           5.9806862    -1.0685318     0.6622279
H           5.6648435    -0.7575673     1.6563169
C           5.1180529    -0.8864807    -0.4254857
C           5.5471885    -1.2873965    -1.6990446
H           4.8764288    -1.1650304    -2.5425725
C           6.8082729    -1.8569297    -1.8720659
H           7.1256688    -2.1636971    -2.8654754
25
177_C10H13NO_0-5-6-20 (135,) energy =    -518.8760840
N           1.7338972    -1.2311126     0.2375283
C           1.6654733    -0.7580430     1.6148832
H           0.6139243    -0.7214528     1.9135037
H           2.0649677     0.2531764     1.7172365
H           2.1915502    -1.4207081     2.3170482
C           2.8096095    -1.0702409    -0.6046520
C           4.0167368    -0.2613869    -0.0974030
H           3.9648359    -0.0537622     0.9723763
H           3.9584347     0.7088769    -0.6101875
O           2.8115141    -1.5197105    -1.7466893
C           0.6224355    -2.0644277    -0.2092630
H          -0.3213618    -1.5086783    -0.1463097
H           0.5372675    -2.9662398     0.4119647
H           0.8074360    -2.3546285    -1.2420560
C           7.8280567    -2.1376117    -0.9374195
H           8.7878059    -2.6036265    -1.1448518
C           7.3965016    -1.9744679     0.3786687
H           8.0169130    -2.3133480     1.2044278
C           6.1637290    -1.3723670     0.6387536
H           5.8350278    -1.2459194     1.6684851
C           5.3458481    -0.9256892    -0.4058259
C           5.7886323    -1.0941953    -1.7253347
H           5.1540229    -0.7697129    -2.5425521
C           7.0188951    -1.6959451    -1.9871002
H           7.3473148    -1.8199891    -3.0158631
25
177_C10H13NO_0-5-6-20 (150,) energy =    -518.8763301
N           1.7002572    -1.2516387     0.2668524
C           1.4958235    -0.5201614     1.5082123
H           0.4479270    -0.2052877     1.5630177
H           2.1072614     0.3818104     1.5492554
H           1.7092748    -1.1342943     2.3957486
C           2.8525453    -1.2453021    -0.4859651
C           4.0452226    -0.4301029     0.0510723
H           4.0124859    -0.3493983     1.1403090
H           3.9312644     0.5924107    -0.3386755
O           2.9313891    -1.8461006    -1.5518797
C           0.5867014    -2.0869131    -0.1651569
H          -0.3006005    -1.4740747    -0.3716999
H           0.3295584    -2.8161422     0.6145774
H           0.8833945    -2.6115116    -1.0718759
C           7.9133858    -2.0156610    -1.0657640
H           8.8886181    -2.4077701    -1.3423712
C           7.5137834    -2.0054593     0.2702086
H           8.1749589    -2.3902508     1.0424468
C           6.2605771    -1.4979026     0.6194159
H           5.9564392    -1.4914730     1.6642916
C           5.3903169    -0.9955588    -0.3545923
C           5.8014404    -1.0114624    -1.6946054
H           5.1299531    -0.6405132    -2.4615797
C           7.0519765    -1.5173105    -2.0462879
H           7.3548876    -1.5233439    -3.0901963
25
177_C10H13NO_0-5-6-20 (165,) energy =    -518.8768269
N           1.6784381    -1.2303119     0.2607851
C           1.4387227    -0.3759340     1.4123841
H           0.4475412     0.0825535     1.3172951
H           2.1683402     0.4315899     1.4708619
H           1.4590011    -0.9390975     2.3577738
C           2.8925309    -1.4007467    -0.3672512
C           4.0777723    -0.5850142     0.1862985
H           4.0620570    -0.5939554     1.2810420
H           3.9240870     0.4633908    -0.1106534
O           3.0230505    -2.1458053    -1.3312221
C           0.5480500    -2.0448558    -0.1645728
H          -0.2935423    -1.4071140    -0.4646100
H           0.2120627    -2.6982206     0.6523027
H           0.8636031    -2.6541049    -1.0100287
C           7.9680690    -1.9252946    -1.1442832
H           8.9497928    -2.2546433    -1.4744733
C           7.6228413    -1.9926407     0.2049890
H           8.3329378    -2.3750525     0.9337104
C           6.3606256    -1.5665740     0.6240980
H           6.0977779    -1.6207885     1.6787071
C           5.4279237    -1.0696705    -0.2924992
C           5.7851092    -1.0083787    -1.6464649
H           5.0658917    -0.6402773    -2.3712250
C           7.0438481    -1.4320437    -2.0688376
H           7.3036770    -1.3794242    -3.1229887
25
177_C10H13NO_0-5-6-20 (180,) energy =    -518.8768370
N           1.5055810    -1.4823592     0.2017127
C           1.1434472    -0.5340686     1.2403101
H           0.3402116     0.1253021     0.8847460
H           1.9879695     0.0900408     1.5265743
H           0.7771112    -1.0531194     2.1382449
C           2.7804972    -1.7305189    -0.2595223
C           3.9120789    -0.8677583     0.3333889
H           3.9199612    -0.9791591     1.4243531
H           3.6773702     0.1885304     0.1393064
O           3.0027817    -2.5791907    -1.1144804
C           0.4051547    -2.2883042    -0.3077391
H          -0.3698778    -1.6441596    -0.7436779
H          -0.0510849    -2.8766504     0.5003146
H           0.7949899    -2.9603657    -1.0705236
C           7.8588862    -1.7308122    -1.2090912
H           8.8540569    -1.9370758    -1.5942545
C           7.5780467    -1.9100334     0.1446602
H           8.3531044    -2.2576054     0.8228515
C           6.2971193    -1.6426206     0.6332278
H           6.0851762    -1.7845766     1.6910353
C           5.2817887    -1.1941379    -0.2174536
C           5.5747736    -1.0202002    -1.5768305
H           4.7932947    -0.6880930    -2.2540699
C           6.8511431    -1.2855084    -2.0686298
H           7.0598926    -1.1475036    -3.1263722
