25
177_C10H13NO_5-6-20-18 (-165,) energy =    -518.8774109
N           1.7599291    -1.6066824    -0.0740935
C           2.1295124    -2.1314090     1.2306267
H           1.4802093    -1.7382969     2.0268877
H           3.1671311    -1.9020475     1.4703211
H           2.0279334    -3.2233898     1.2230890
C           2.4324192    -0.6149968    -0.7482202
C           3.6542404     0.0073651    -0.0666191
H           3.4584183     0.2229280     0.9899194
H           3.7818873     0.9731270    -0.5675714
O           2.0894242    -0.2353483    -1.8647954
C           0.5542620    -2.1694247    -0.6648855
H          -0.3051000    -2.0243099     0.0034429
H           0.6761467    -3.2466640    -0.8397310
H           0.3696295    -1.6655904    -1.6125313
C           7.3835306    -2.1676054    -0.4912559
H           8.3250380    -2.6991457    -0.6001920
C           7.2413997    -1.1828226     0.4883907
H           8.0727876    -0.9420720     1.1459220
C           6.0310877    -0.5037838     0.6268732
H           5.9283988     0.2631843     1.3919998
C           4.9404055    -0.7981189    -0.2038264
C           5.0990083    -1.7767244    -1.1932290
H           4.2782250    -1.9943866    -1.8706451
C           6.3091922    -2.4592732    -1.3320549
H           6.4116487    -3.2170694    -2.1044988
25
177_C10H13NO_5-6-20-18 (-150,) energy =    -518.8786401
N           1.7730617    -1.6117246    -0.0335575
C           2.1564759    -2.0223549     1.3073093
H           1.4988197    -1.5824809     2.0715795
H           3.1885526    -1.7505312     1.5247751
H           2.0808669    -3.1136238     1.3867607
C           2.4242721    -0.6675877    -0.7898176
C           3.6446921     0.0263226    -0.1755634
H           3.4637075     0.3225883     0.8631952
H           3.7541478     0.9484111    -0.7564626
O           2.0712561    -0.3879785    -1.9333305
C           0.5761845    -2.2431857    -0.5705171
H          -0.2843451    -2.0566391     0.0859382
H           0.7171940    -3.3289820    -0.6534354
H           0.3811296    -1.8250788    -1.5569151
C           7.3559656    -2.1940233    -0.4862894
H           8.2916160    -2.7405147    -0.5688724
C           7.1270876    -1.3524796     0.6029186
H           7.8846451    -1.2385601     1.3740499
C           5.9228280    -0.6538991     0.7064029
H           5.7529073     0.0022414     1.5578000
C           4.9285347    -0.7866103    -0.2716606
C           5.1730983    -1.6252354    -1.3680990
H           4.4210050    -1.7172543    -2.1468181
C           6.3751203    -2.3256338    -1.4714433
H           6.5468086    -2.9732033    -2.3273842
25
177_C10H13NO_5-6-20-18 (-135,) energy =    -518.8791821
N           1.7865434    -1.6108333     0.0115380
C           2.1635113    -1.8984825     1.3856818
H           1.5076798    -1.3858643     2.1049594
H           3.1971937    -1.6162078     1.5799616
H           2.0797379    -2.9772510     1.5641250
C           2.4333279    -0.7317720    -0.8216778
C           3.6463516     0.0307242    -0.2724812
H           3.4780908     0.3878099     0.7486423
H           3.7262061     0.9134708    -0.9148522
O           2.0843846    -0.5584116    -1.9876505
C           0.5968763    -2.2960161    -0.4738662
H          -0.2675306    -2.0613860     0.1617114
H           0.7474314    -3.3835697    -0.4636348
H           0.4023677    -1.9653509    -1.4929563
C           7.3502266    -2.2096922    -0.4964661
H           8.2818356    -2.7657763    -0.5583248
C           7.0157133    -1.5267789     0.6725980
H           7.6861181    -1.5466975     1.5279713
C           5.8170256    -0.8132890     0.7477095
H           5.5669661    -0.2765901     1.6609449
C           4.9377717    -0.7709389    -0.3410390
C           5.2845537    -1.4583176    -1.5134988
H           4.6090047    -1.4274867    -2.3640965
C           6.4798539    -2.1718930    -1.5889855
H           6.7338499    -2.6988229    -2.5051189
25
177_C10H13NO_5-6-20-18 (-120,) energy =    -518.8787436
N           1.7868916    -1.6149082     0.0628076
C           2.1162730    -1.7532760     1.4713425
H           1.4317358    -1.1752288     2.1098932
H           3.1396200    -1.4419239     1.6715409
H           2.0335116    -2.8083502     1.7586303
C           2.4477917    -0.8164047    -0.8375569
C           3.6428768     0.0178972    -0.3506286
H           3.4829001     0.4249285     0.6527060
H           3.6834408     0.8640457    -1.0424613
O           2.1255818    -0.7648077    -2.0228047
C           0.6145990    -2.3554416    -0.3835304
H          -0.2701481    -2.0591580     0.1959712
H           0.7683299    -3.4344188    -0.2513343
H           0.4516514    -2.1375579    -1.4377619
C           7.3489621    -2.2212348    -0.5281291
H           8.2770134    -2.7843582    -0.5788336
C           6.9031036    -1.7105816     0.6905403
H           7.4825748    -1.8723950     1.5958140
C           5.7100040    -0.9862372     0.7514756
H           5.3793179    -0.5772770     1.7043807
C           4.9509444    -0.7560848    -0.4018547
C           5.4056274    -1.2780208    -1.6220536
H           4.8111423    -1.1186207    -2.5175319
C           6.5950175    -2.0021343    -1.6842355
H           6.9347133    -2.3972133    -2.6381475
25
177_C10H13NO_5-6-20-18 (-105,) energy =    -518.8776048
N           1.7638684    -1.5564966     0.0706735
C           2.0935398    -1.6100262     1.4840888
H           1.1754708    -1.5182355     2.0779421
H           2.7609289    -0.8000065     1.7707968
H           2.5748080    -2.5629336     1.7479794
C           2.4570738    -0.8744167    -0.9012746
C           3.6296623     0.0347631    -0.4980630
H           3.4794914     0.5211735     0.4699510
H           3.6416189     0.8197954    -1.2584690
O           2.1766952    -0.9807459    -2.0927275
C           0.7149050    -2.4788263    -0.3467884
H          -0.2029273    -2.2848842     0.2220406
H           1.0179400    -3.5203288    -0.1700565
H           0.5308288    -2.3339458    -1.4097939
C           7.3426263    -2.1971332    -0.5973416
H           8.2703586    -2.7621305    -0.6300692
C           6.7746054    -1.8504476     0.6286274
H           7.2580796    -2.1437479     1.5569650
C           5.5830305    -1.1230659     0.6683502
H           5.1574362    -0.8480105     1.6307075
C           4.9486220    -0.7212667    -0.5132721
C           5.5230527    -1.0836736    -1.7402893
H           5.0207928    -0.8010398    -2.6613272
C           6.7112096    -1.8117931    -1.7823492
H           7.1446293    -2.0796146    -2.7424429
25
177_C10H13NO_5-6-20-18 (-90,) energy =    -518.8762203
N           1.7301299    -1.5595523     0.1371170
C           1.9654489    -1.4208825     1.5636166
H           1.0128987    -1.2370721     2.0765998
H           2.6297069    -0.5875421     1.7838016
H           2.4051082    -2.3357830     1.9873231
C           2.4798856    -1.0127415    -0.8796749
C           3.6318497    -0.0494564    -0.5460460
H           3.4927225     0.4793720     0.4006027
H           3.6059010     0.6990958    -1.3420017
O           2.2602313    -1.2751111    -2.0584327
C           0.7007421    -2.5310953    -0.2133036
H          -0.2538239    -2.2508374     0.2495609
H           0.9757109    -3.5341423     0.1415002
H           0.5968240    -2.5478495    -1.2966443
C           7.4006637    -2.1848569    -0.6584981
H           8.3419019    -2.7268182    -0.6946158
C           6.7029371    -2.0680637     0.5444343
H           7.0984601    -2.5197474     1.4506011
C           5.4949561    -1.3702857     0.5893567
H           4.9670596    -1.2790713     1.5355450
C           4.9706030    -0.7682268    -0.5620656
C           5.6741653    -0.9021036    -1.7663753
H           5.2630892    -0.4628885    -2.6711142
C           6.8808749    -1.6000544    -1.8146972
H           7.4145526    -1.6882568    -2.7574099
25
177_C10H13NO_5-6-20-18 (-75,) energy =    -518.8751773
N           1.6561671    -1.5671660     0.2012624
C           1.7976633    -1.2274834     1.6059427
H           0.8592198    -0.8075185     1.9941224
H           2.5887443    -0.4990574     1.7696926
H           2.0317280    -2.1240771     2.1973395
C           2.4094348    -1.0987664    -0.8526835
C           3.5519903    -0.1035044    -0.5915202
H           3.4200669     0.4751067     0.3270316
H           3.5000907     0.6031911    -1.4236624
O           2.2038295    -1.4648828    -2.0053073
C           0.5981644    -2.5297702    -0.0797844
H          -0.3736854    -2.1348368     0.2451311
H           0.7839348    -3.4704857     0.4556372
H           0.5788783    -2.7171078    -1.1518210
C           7.4021118    -2.0950140    -0.6636725
H           8.3660322    -2.5962239    -0.6870204
C           6.5676872    -2.2275995     0.4478531
H           6.8794489    -2.8343165     1.2941891
C           5.3306403    -1.5838057     0.4770364
H           4.6937585    -1.6961094     1.3510179
C           4.9082336    -0.7897140    -0.5984770
C           5.7496988    -0.6725332    -1.7111894
H           5.4277432    -0.0752774    -2.5602028
C           6.9878974    -1.3157450    -1.7442227
H           7.6270471    -1.2088011    -2.6167695
25
177_C10H13NO_5-6-20-18 (-60,) energy =    -518.8747693
N           1.7306038    -1.6385861     0.2259448
C           1.8599997    -1.0947820     1.5684700
H           1.0576920    -0.3764405     1.7947137
H           2.8200444    -0.6028148     1.7156691
H           1.7916905    -1.9113892     2.2976651
C           2.4386571    -1.2469586    -0.8907951
C           3.5761420    -0.2274748    -0.7351178
H           3.4486630     0.4214426     0.1370756
H           3.4987208     0.4131898    -1.6175021
O           2.1988763    -1.7062509    -2.0021749
C           0.6191425    -2.5652640     0.0484094
H          -0.3365111    -2.0748712     0.2806478
H           0.7347045    -3.4282037     0.7162870
H           0.6129583    -2.8991481    -0.9876720
C           7.5202951    -2.0312851    -0.6825006
H           8.5113215    -2.4768447    -0.6691323
C           6.5741427    -2.3923991     0.2785782
H           6.8250640    -3.1231690     1.0431641
C           5.3016806    -1.8216818     0.2603339
H           4.5726431    -2.1246875     1.0073729
C           4.9508315    -0.8781342    -0.7158648
C           5.9060962    -0.5304083    -1.6781739
H           5.6469624     0.1912850    -2.4489066
C           7.1808426    -1.0987533    -1.6628453
H           7.9061479    -0.8144968    -2.4207750
25
177_C10H13NO_5-6-20-18 (-45,) energy =    -518.8750280
N           1.7715642    -1.6419524     0.2884252
C           2.0190617    -0.9884950     1.5652397
H           1.3137082    -0.1643926     1.7510636
H           3.0365806    -0.6035152     1.6289649
H           1.8952562    -1.7219959     2.3700653
C           2.3842925    -1.3253668    -0.9065157
C           3.5310152    -0.3075267    -0.8931149
H           3.4080073     0.4425749    -0.1035027
H           3.4429062     0.2233551    -1.8447166
O           2.0496591    -1.8462799    -1.9646908
C           0.6203936    -2.5361497     0.2592338
H          -0.3050136    -1.9914217     0.4939371
H           0.7452819    -3.3379985     0.9971293
H           0.5435483    -2.9623204    -0.7396830
C           7.5233291    -1.9854367    -0.6227667
H           8.5281981    -2.3929576    -0.5523032
C           6.4998221    -2.4959463     0.1765193
H           6.7031680    -3.3070035     0.8710567
C           5.2086372    -1.9740749     0.0853232
H           4.4183215    -2.3988509     0.6979418
C           4.9159960    -0.9342389    -0.8077600
C           5.9505421    -0.4365239    -1.6107198
H           5.7394131     0.3632157    -2.3168076
C           7.2430078    -0.9536446    -1.5198035
H           8.0291097    -0.5533823    -2.1548107
25
177_C10H13NO_5-6-20-18 (-30,) energy =    -518.8753619
N           1.7874890    -1.6490810     0.2833242
C           2.1498169    -0.9581905     1.5122200
H           1.4972944    -0.0941262     1.7090161
H           3.1870133    -0.6232145     1.4898584
H           2.0481926    -1.6527116     2.3536148
C           2.3283512    -1.3894021    -0.9584983
C           3.4817717    -0.3851186    -1.0459984
H           3.3382105     0.4489466    -0.3474040
H           3.4055472     0.0359718    -2.0522077
O           1.9181493    -1.9406656    -1.9741071
C           0.6156660    -2.5118656     0.3660207
H          -0.2745388    -1.9363418     0.6564512
H           0.7757640    -3.2994138     1.1125307
H           0.4514821    -2.9596471    -0.6128532
C           7.4997865    -1.9446432    -0.5266121
H           8.5110816    -2.3206104    -0.3973844
C           6.4264620    -2.5844552     0.0919973
H           6.5966898    -3.4663615     0.7041903
C           5.1259546    -2.1026065    -0.0751935
H           4.2992271    -2.6244187     0.3980744
C           4.8756647    -0.9744214    -0.8663848
C           5.9628141    -0.3453730    -1.4900161
H           5.7859827     0.5261468    -2.1165755
C           7.2622055    -0.8211708    -1.3214916
H           8.0886152    -0.3182763    -1.8170743
25
177_C10H13NO_5-6-20-18 (-15,) energy =    -518.8756928
N           1.8093608    -1.6417078     0.2729449
C           2.2639551    -0.9220489     1.4526950
H           1.6091760    -0.0703117     1.6910762
H           3.2855469    -0.5636333     1.3293042
H           2.2561998    -1.6013396     2.3130200
C           2.2924562    -1.4520692    -1.0037313
C           3.4516382    -0.4690330    -1.1920835
H           3.2915962     0.4406938    -0.5988174
H           3.3876372    -0.1697878    -2.2423286
O           1.8220787    -2.0409226    -1.9715845
C           0.6334499    -2.4809978     0.4595178
H          -0.2240288    -1.8815722     0.7960373
H           0.8313288    -3.2524406     1.2142205
H           0.3941522    -2.9509343    -0.4932206
C           7.4764556    -1.9174538    -0.4452878
H           8.4893526    -2.2663192    -0.2633889
C           6.3849869    -2.6653872    -0.0076141
H           6.5421996    -3.6045158     0.5165764
C           5.0818799    -2.2173824    -0.2417575
H           4.2425511    -2.8176954     0.0968448
C           4.8489692    -1.0165396    -0.9218220
C           5.9563015    -0.2747573    -1.3608397
H           5.7942451     0.6584841    -1.8963333
C           7.2564010    -0.7168763    -1.1253961
H           8.0985901    -0.1262696    -1.4766312
25
177_C10H13NO_5-6-20-18 (0,) energy =    -518.8762237
N           1.7950049    -1.5974088     0.2943176
C           2.3108237    -0.8338205     1.4190861
H           1.6492826     0.0066111     1.6771966
H           3.3098998    -0.4516446     1.2136211
H           2.3825980    -1.4861126     2.2977725
C           2.2470604    -1.5028254    -1.0024499
C           3.4026557    -0.5394816    -1.2889331
H           3.2365014     0.4274074    -0.7975751
H           3.3400382    -0.3559492    -2.3663504
O           1.7524659    -2.1589559    -1.9140439
C           0.6360039    -2.4323168     0.5770263
H          -0.1941523    -1.8239443     0.9614185
H           0.8835719    -3.1912045     1.3306077
H           0.3316777    -2.9202606    -0.3477447
C           7.4219834    -1.9040508    -0.3777248
H           8.4330711    -2.2348861    -0.1563485
C           6.3375683    -2.7450298    -0.1335193
H           6.4987453    -3.7378738     0.2784311
C           5.0366213    -2.3206115    -0.4174164
H           4.2038801    -2.9923042    -0.2304992
C           4.7998673    -1.0503092    -0.9547966
C           5.8996041    -0.2121107    -1.1939028
H           5.7337299     0.7795563    -1.6101654
C           7.1977654    -0.6322700    -0.9111395
H           8.0346779     0.0331825    -1.1067328
25
177_C10H13NO_5-6-20-18 (15,) energy =    -518.8772421
N           1.8111291    -1.5391523     0.2962155
C           2.3339699    -0.6769314     1.3437876
H           1.6650607     0.1733978     1.5428068
H           3.3240754    -0.3004590     1.0897968
H           2.4300467    -1.2528858     2.2722227
C           2.2664470    -1.5773680    -1.0005714
C           3.3935109    -0.6165706    -1.3889176
H           3.2250180     0.3867371    -0.9818836
H           3.3135887    -0.5316021    -2.4783108
O           1.8069637    -2.3559640    -1.8318419
C           0.6925750    -2.3896587     0.6766650
H          -0.1445273    -1.7817172     1.0453648
H           0.9894094    -3.0852177     1.4728914
H           0.3769201    -2.9533254    -0.2000212
C           7.4058227    -1.9128098    -0.3622959
H           8.4136784    -2.2293281    -0.1075099
C           6.3545926    -2.8296162    -0.3469693
H           6.5405641    -3.8671216    -0.0816545
C           5.0585953    -2.4236185    -0.6722117
H           4.2526944    -3.1518865    -0.6759377
C           4.7939830    -1.0941905    -1.0240616
C           5.8570650    -0.1796119    -1.0298374
H           5.6667529     0.8591114    -1.2925860
C           7.1522479    -0.5836208    -0.7072210
H           7.9622093     0.1411302    -0.7207751
25
177_C10H13NO_5-6-20-18 (30,) energy =    -518.8785197
N           1.8287278    -1.5065990     0.3176777
C           2.3424735    -0.5484094     1.2831061
H           1.6624807     0.3068153     1.4105763
H           3.3265008    -0.1824729     0.9926887
H           2.4499892    -1.0402319     2.2574197
C           2.2750839    -1.6458530    -0.9740713
C           3.3805530    -0.7008640    -1.4560144
H           3.2068942     0.3299800    -1.1299215
H           3.2877080    -0.7094354    -2.5476304
O           1.8311876    -2.5065309    -1.7307499
C           0.7365313    -2.3500186     0.7818322
H          -0.1115541    -1.7342468     1.1100169
H           1.0603820    -2.9697303     1.6284963
H           0.4258029    -2.9921604    -0.0409446
C           7.3889737    -1.9298203    -0.3451141
H           8.3947329    -2.2348487    -0.0688438
C           6.3948950    -2.8879195    -0.5531535
H           6.6250153    -3.9442477    -0.4405677
C           5.1023833    -2.4985901    -0.9059176
H           4.3371717    -3.2497653    -1.0804658
C           4.7836001    -1.1424462    -1.0610714
C           5.7866919    -0.1884432    -0.8440583
H           5.5532760     0.8686699    -0.9548964
C           7.0808246    -0.5769179    -0.4934505
H           7.8453683     0.1786636    -0.3319422
25
177_C10H13NO_5-6-20-18 (45,) energy =    -518.8791683
N           1.8362462    -1.4688894     0.3425086
C           2.3219482    -0.4195676     1.2234901
H           1.6201466     0.4259426     1.2764747
H           3.2975084    -0.0552505     0.9050447
H           2.4380874    -0.8238707     2.2363080
C           2.2846709    -1.7053835    -0.9336171
C           3.3751875    -0.7873863    -1.5009265
H           3.1965303     0.2636518    -1.2515792
H           3.2731579    -0.8831306    -2.5866264
O           1.8566764    -2.6342533    -1.6158381
C           0.7575797    -2.2901602     0.8738940
H          -0.1038199    -1.6646711     1.1441275
H           1.0891191    -2.8272452     1.7723048
H           0.4636086    -3.0072425     0.1090018
C           7.3878015    -1.9450003    -0.3391205
H           8.3951952    -2.2360813    -0.0539156
C           6.4687099    -2.9097450    -0.7596216
H           6.7601830    -3.9560050    -0.8029299
C           5.1757955    -2.5387890    -1.1265564
H           4.4622799    -3.2892516    -1.4558577
C           4.7795109    -1.1941502    -1.0791294
C           5.7075014    -0.2349193    -0.6556349
H           5.4173405     0.8134656    -0.6207392
C           7.0036523    -0.6052088    -0.2892731
H           7.7102288     0.1545875     0.0347676
25
177_C10H13NO_5-6-20-18 (60,) energy =    -518.8787694
N           1.8262130    -1.4284169     0.3750063
C           2.2477291    -0.2780495     1.1562794
H           1.5083868     0.5356929     1.1159357
H           3.2114541     0.0985856     0.8191378
H           2.3620955    -0.5765236     2.2053779
C           2.3022104    -1.7684910    -0.8671980
C           3.3731744    -0.8794922    -1.5182571
H           3.1935788     0.1846696    -1.3355187
H           3.2540153    -1.0506740    -2.5917431
O           1.9144184    -2.7720756    -1.4619622
C           0.7678406    -2.2353369     0.9669273
H          -0.1221844    -1.6207467     1.1580705
H           1.1007430    -2.6663819     1.9201918
H           0.5177131    -3.0361108     0.2729141
C           7.4054320    -1.9693886    -0.3659106
H           8.4186529    -2.2459914    -0.0869665
C           6.5688049    -2.8993582    -0.9890621
H           6.9302925    -3.9030713    -1.1972278
C           5.2703292    -2.5451557    -1.3513847
H           4.6156512    -3.2687919    -1.8295202
C           4.7826938    -1.2561515    -1.0894154
C           5.6315881    -0.3291464    -0.4736347
H           5.2798784     0.6842961    -0.2896477
C           6.9338039    -0.6820391    -0.1109008
H           7.5785815     0.0521585     0.3652439
25
177_C10H13NO_5-6-20-18 (75,) energy =    -518.8775356
N           1.6977502    -1.3045941    -0.1357412
C           1.8315702    -2.5743300     0.5570982
H           0.8407714    -2.9209771     0.8753248
H           2.4544933    -2.4822233     1.4448070
H           2.2689320    -3.3456995    -0.0934315
C           2.5566293    -0.2347879    -0.0390736
C           3.6986725    -0.2734708     0.9896950
H           3.4273725    -0.8056452     1.9059047
H           3.8635530     0.7732899     1.2567605
O           2.4473788     0.7520543    -0.7625163
C           0.6839731    -1.2829682    -1.1833190
H          -0.2958289    -1.5380565    -0.7611502
H           0.9209401    -2.0102754    -1.9725406
H           0.6544674    -0.2838508    -1.6143558
C           7.3452598    -1.8836203    -0.7108310
H           8.2640648    -2.2784194    -1.1361490
C           6.9125924    -0.5971164    -1.0413473
H           7.4945380     0.0140385    -1.7263174
C           5.7371485    -0.0886768    -0.4905520
H           5.3937533     0.9074269    -0.7560948
C           4.9683188    -0.8597989     0.3931948
C           5.4157558    -2.1442408     0.7247878
H           4.8497003    -2.7485250     1.4299173
C           6.5940869    -2.6550442     0.1759441
H           6.9265233    -3.6535258     0.4481582
25
177_C10H13NO_5-6-20-18 (90,) energy =    -518.8761101
N           1.6313350    -1.4597627    -0.1077803
C           1.6482849    -2.6296604     0.7524371
H           0.6453710    -2.7987241     1.1652310
H           2.3370241    -2.5080204     1.5859779
H           1.9380826    -3.5312111     0.1929935
C           2.5523784    -0.4369909    -0.1308392
C           3.6988992    -0.4178338     0.8946356
H           3.4530730    -0.9325007     1.8271775
H           3.8379629     0.6391490     1.1343671
O           2.4940919     0.4670490    -0.9590584
C           0.6039215    -1.4860276    -1.1419836
H          -0.3909886    -1.5562609    -0.6840792
H           0.7417732    -2.3527489    -1.8031219
H           0.6790363    -0.5703430    -1.7255954
C           7.3713839    -1.9787716    -0.7972158
H           8.2950104    -2.3645879    -1.2202954
C           7.0683271    -0.6193703    -0.8909726
H           7.7557868     0.0595337    -1.3887503
C           5.8847166    -0.1249571    -0.3426026
H           5.6465720     0.9319374    -0.4257110
C           4.9810218    -0.9793679     0.3022748
C           5.2985907    -2.3408455     0.3964673
H           4.6228051    -3.0201771     0.9103285
C           6.4824365    -2.8383445    -0.1500640
H           6.7120967    -3.8973650    -0.0643907
25
177_C10H13NO_5-6-20-18 (105,) energy =    -518.8751440
N           1.6193227    -1.5557590    -0.0985299
C           1.5780955    -2.5802050     0.9298356
H           0.6233392    -2.5394150     1.4725666
H           2.3838707    -2.4639098     1.6512729
H           1.6640317    -3.5798632     0.4807817
C           2.5433204    -0.5428769    -0.2340174
C           3.6950993    -0.4203411     0.7769832
H           3.4713995    -0.8748774     1.7460160
H           3.8033759     0.6540463     0.9457145
O           2.4833350     0.2658197    -1.1544737
C           0.5560829    -1.6581351    -1.0905304
H          -0.4265426    -1.5814179    -0.6062320
H           0.6090147    -2.6238348    -1.6109067
H           0.6760489    -0.8490179    -1.8086282
C           7.4220048    -1.9744172    -0.8022028
H           8.3583783    -2.3606650    -1.1957797
C           7.2126158    -0.5983887    -0.7080867
H           7.9856887     0.0946421    -1.0295846
C           6.0096443    -0.1051102    -0.2003710
H           5.8497980     0.9679761    -0.1355016
C           4.9963567    -0.9746811     0.2197755
C           5.2185807    -2.3555568     0.1213833
H           4.4499974    -3.0527206     0.4459593
C           6.4195122    -2.8522261    -0.3850165
H           6.5727849    -3.9262930    -0.4519370
25
177_C10H13NO_5-6-20-18 (120,) energy =    -518.8747713
N           1.6558288    -1.5543397    -0.1089112
C           1.6015103    -2.4289158     1.0516342
H           0.8140528    -2.1206074     1.7556900
H           2.5516288    -2.4576248     1.5824983
H           1.3745113    -3.4510029     0.7243546
C           2.5545335    -0.5312016    -0.3262221
C           3.7097076    -0.3275900     0.6645690
H           3.4860492    -0.7129805     1.6642527
H           3.8072558     0.7570086     0.7602485
O           2.4690150     0.2082220    -1.3006848
C           0.5373363    -1.6978547    -1.0329918
H          -0.4145876    -1.4847594    -0.5269212
H           0.4977072    -2.7223642    -1.4240407
H           0.6772058    -0.9954050    -1.8527396
C           7.4859245    -1.9366094    -0.7368821
H           8.4353306    -2.3368060    -1.0822946
C           7.3545262    -0.5753718    -0.4620945
H           8.2015327     0.0927259    -0.5945855
C           6.1330815    -0.0640506    -0.0205107
H           6.0367308     0.9990535     0.1856919
C           5.0246841    -0.9000440     0.1580759
C           5.1673172    -2.2654550    -0.1278051
H           4.3173445    -2.9337740    -0.0165885
C           6.3858397    -2.7800559    -0.5699146
H           6.4747013    -3.8413691    -0.7873672
25
177_C10H13NO_5-6-20-18 (135,) energy =    -518.8749996
N           1.7153119    -1.6482536    -0.1675614
C           1.7659485    -2.4513918     1.0451098
H           1.0641142    -2.0870444     1.8105038
H           2.7691236    -2.4758322     1.4698310
H           1.4878453    -3.4831130     0.8011056
C           2.5387284    -0.5809528    -0.4608956
C           3.7069595    -0.2759322     0.4847193
H           3.4833076    -0.5549129     1.5207617
H           3.8015217     0.8129758     0.4681481
O           2.3710778     0.1123139    -1.4581069
C           0.5548734    -1.8803806    -1.0190178
H          -0.3769069    -1.6552394    -0.4812187
H           0.5237983    -2.9291941    -1.3386842
H           0.6338681    -1.2311824    -1.8894335
C           7.5189228    -1.9889540    -0.6844893
H           8.4782649    -2.4130367    -0.9684103
C           7.4322865    -0.6593548    -0.2696217
H           8.3245234    -0.0398051    -0.2313537
C           6.1981029    -0.1164412     0.0888126
H           6.1384381     0.9226173     0.4041538
C           5.0304545    -0.8893202     0.0487526
C           5.1288408    -2.2203593    -0.3795485
H           4.2338900    -2.8318790    -0.4529559
C           6.3612140    -2.7659735    -0.7416518
H           6.4140010    -3.7991552    -1.0752842
25
177_C10H13NO_5-6-20-18 (150,) energy =    -518.8753282
N           1.7315129    -1.6464443    -0.1778746
C           1.9064062    -2.4125686     1.0470004
H           1.2436965    -2.0602186     1.8518476
H           2.9384662    -2.3769021     1.3955099
H           1.6631918    -3.4627627     0.8491723
C           2.4914315    -0.5570365    -0.5486778
C           3.6835281    -0.1735961     0.3345352
H           3.4589607    -0.3273172     1.3975750
H           3.7954457     0.9046871     0.1930374
O           2.2414926     0.0971795    -1.5551816
C           0.5312126    -1.9525683    -0.9456719
H          -0.3728345    -1.7627199    -0.3501890
H           0.5308983    -3.0076743    -1.2458797
H           0.5203419    -1.3178850    -1.8303627
C           7.4867455    -2.0494713    -0.5943753
H           8.4450969    -2.5105279    -0.8174099
C           7.4339520    -0.7668924    -0.0443038
H           8.3517908    -0.2219417     0.1608115
C           6.2027455    -0.1753168     0.2337200
H           6.1710180     0.8272395     0.6546870
C           5.0011416    -0.8520370    -0.0207441
C           5.0667886    -2.1340579    -0.5807490
H           4.1513310    -2.6687671    -0.8168131
C           6.2988950    -2.7278377    -0.8645753
H           6.3262923    -3.7212550    -1.3049018
25
177_C10H13NO_5-6-20-18 (165,) energy =    -518.8756897
N           1.7587423    -1.6510388    -0.1701898
C           2.0411450    -2.3587366     1.0694215
H           1.4145483    -2.0003823     1.9001029
H           3.0908442    -2.2667395     1.3479111
H           1.8316997    -3.4251185     0.9278922
C           2.4524736    -0.5499029    -0.6234712
C           3.6678642    -0.0876810     0.1853887
H           3.4493845    -0.1073846     1.2612473
H           3.7930604     0.9644273    -0.0864464
O           2.1231546     0.0539397    -1.6391752
C           0.5316259    -2.0360807    -0.8545193
H          -0.3433581    -1.8712469    -0.2102011
H           0.5640363    -3.0985882    -1.1259128
H           0.4369023    -1.4290279    -1.7536109
C           7.4501353    -2.0978565    -0.5281751
H           8.4038563    -2.5893676    -0.7002056
C           7.3977615    -0.8820453     0.1585099
H           8.3123538    -0.4210794     0.5225139
C           6.1736232    -0.2523015     0.3729987
H           6.1432155     0.6983642     0.9014282
C           4.9761320    -0.8230402    -0.0847152
C           5.0417573    -2.0376818    -0.7768472
H           4.1321254    -2.4908455    -1.1599336
C           6.2688378    -2.6698426    -0.9967297
H           6.2965226    -3.6104878    -1.5406600
25
177_C10H13NO_5-6-20-18 (180,) energy =    -518.8762919
N           1.7511692    -1.6393104    -0.1250723
C           2.1045400    -2.2820978     1.1302400
H           1.4365791    -1.9707904     1.9472714
H           3.1347666    -2.0659013     1.4097596
H           2.0147734    -3.3695790     1.0196300
C           2.4129568    -0.5682114    -0.6817634
C           3.6442715    -0.0282808     0.0515284
H           3.4386544     0.0934913     1.1225070
H           3.7803764     0.9784459    -0.3561674
O           2.0441510    -0.0485747    -1.7306083
C           0.5233159    -2.1102996    -0.7501946
H          -0.3320020    -1.9752463    -0.0738666
H           0.6024563    -3.1773827    -0.9951636
H           0.3605174    -1.5361135    -1.6610781
C           7.3915957    -2.1520354    -0.4886039
H           8.3379736    -2.6687399    -0.6233618
C           7.3138941    -1.0297044     0.3399241
H           8.2010686    -0.6673124     0.8528306
C           6.0989705    -0.3686210     0.5093439
H           6.0476613     0.5071431     1.1532834
C           4.9366501    -0.8148890    -0.1379210
C           5.0285323    -1.9348225    -0.9721778
H           4.1481976    -2.2892019    -1.5003886
C           6.2457353    -2.5995484    -1.1441211
H           6.2945691    -3.4670097    -1.7972128
