30
384_C14H15N_3-0-11-9 (-165,) energy =    -597.2694217
C           1.4113689    -1.3644803     0.1734372
H           2.0822762    -2.2336341     0.2235286
H           1.2474866    -1.0544846     1.2206230
N           2.0989072    -0.3367410    -0.5893722
H           1.4807000     0.4005943    -0.9051597
C          -2.3689386    -3.0280703    -1.1570619
H          -3.3133066    -3.4683960    -1.4655630
C          -1.9131847    -3.1649477     0.1529793
H          -2.4921479    -3.7164046     0.8887902
C          -0.7028570    -2.5816790     0.5120752
H          -0.3514325    -2.6813720     1.5374389
C           0.0806013    -1.8507164    -0.3968438
C          -0.3580250    -1.7458523    -1.7362715
C           0.4141152    -1.0681117    -2.8539228
H          -0.0002727    -1.3662562    -3.8223025
H           1.4761195    -1.3204199    -2.8381170
H           0.3452367     0.0268854    -2.8065181
C          -1.5903273    -2.3312100    -2.0755977
H          -1.9344128    -2.2436231    -3.1036750
C           5.8700343     1.1868972     0.5550268
H           6.8429372     1.5819690     0.8320286
C           5.0563868     1.8709336    -0.3540529
H           5.3945170     2.8072055    -0.7911759
C           3.8116034     1.3662877    -0.7099663
H           3.1913276     1.9030321    -1.4253795
C           3.3376605     0.1563981    -0.1632320
C           4.1547245    -0.5224218     0.7579514
H           3.8208383    -1.4492128     1.2113214
C           5.4068854    -0.0081229     1.1016949
H           6.0202594    -0.5528526     1.8152975
30
384_C14H15N_3-0-11-9 (-150,) energy =    -597.2724726
C           1.4468621    -1.4577600     0.1538707
H           2.1362842    -2.3008870    -0.0013548
H           1.3785485    -1.3203582     1.2464080
N           2.0274479    -0.2979379    -0.5047273
H           1.3520053     0.4401051    -0.6666317
C          -2.4294241    -2.8786924    -1.1603288
H          -3.3989780    -3.2553077    -1.4752404
C          -2.0295085    -2.9745861     0.1706544
H          -2.6774026    -3.4307243     0.9142072
C          -0.7842682    -2.4740895     0.5424415
H          -0.4757868    -2.5375841     1.5839443
C           0.0800127    -1.8640844    -0.3790919
C          -0.2987295    -1.8173487    -1.7411979
C           0.5953385    -1.3060560    -2.8540553
H           0.2125670    -1.6456007    -3.8222940
H           1.6256110    -1.6553810    -2.7488692
H           0.6423056    -0.2114083    -2.8883393
C          -1.5640722    -2.3120335    -2.0934955
H          -1.8641030    -2.2670418    -3.1380807
C           5.8351595     1.2286114     0.4996167
H           6.8161259     1.6266730     0.7416770
C           4.9154088     1.9937529    -0.2249054
H           5.1782891     2.9968429    -0.5516419
C           3.6598897     1.4860443    -0.5362772
H           2.9556506     2.0875883    -1.1080018
C           3.2820253     0.1906442    -0.1281462
C           4.2063379    -0.5712620     0.6087666
H           3.9478957    -1.5670099     0.9521910
C           5.4673256    -0.0517108     0.9087836
H           6.1644214    -0.6612164     1.4786969
30
384_C14H15N_3-0-11-9 (-135,) energy =    -597.2755688
C           1.5048905    -1.5352015     0.1104750
H           2.1993833    -2.3246514    -0.2127774
H           1.5176279    -1.5467740     1.2131785
N           1.9945972    -0.2737341    -0.4299373
H           1.2796340     0.4442766    -0.4567141
C          -2.4602451    -2.7175493    -1.1539046
H          -3.4534517    -3.0288940    -1.4666790
C          -2.0973635    -2.7543870     0.1902132
H          -2.7998792    -3.0984454     0.9443661
C          -0.8175972    -2.3439347     0.5617441
H          -0.5335570    -2.3636513     1.6116940
C           0.1110460    -1.8826701    -0.3800643
C          -0.2376143    -1.8888541    -1.7509530
C           0.7372385    -1.5192627    -2.8482060
H           0.3489037    -1.8365538    -3.8215900
H           1.7132329    -1.9945055    -2.7006779
H           0.9277270    -0.4423145    -2.8938152
C          -1.5315875    -2.2942481    -2.1045912
H          -1.8076948    -2.2942978    -3.1567083
C           5.8124063     1.2844239     0.4778771
H           6.7946897     1.6927289     0.6963934
C           4.8162958     2.0894312    -0.0843569
H           5.0202135     3.1339245    -0.3069699
C           3.5588237     1.5691260    -0.3657424
H           2.7942894     2.2028382    -0.8113468
C           3.2563071     0.2202464    -0.0892331
C           4.2578190    -0.5831189     0.4849718
H           4.0588981    -1.6221185     0.7244638
C           5.5193016    -0.0492947     0.7561741
H           6.2770060    -0.6910289     1.1992709
30
384_C14H15N_3-0-11-9 (-120,) energy =    -597.2776701
C           1.5752683    -1.6155647     0.0234952
H           2.2658515    -2.3394454    -0.4311092
H           1.6633951    -1.7428390     1.1151215
N           1.9854021    -0.2801663    -0.4039078
H           1.2358371     0.3985000    -0.3349532
C          -2.4798804    -2.5876118    -1.1157915
H          -3.4988442    -2.8353037    -1.4015854
C          -2.1142337    -2.5429867     0.2273625
H          -2.8410380    -2.7575460     1.0060459
C          -0.8001499    -2.2185344     0.5664962
H          -0.5101934    -2.1786846     1.6142616
C           0.1582104    -1.9305603    -0.4119675
C          -0.2018907    -2.0034586    -1.7772967
C           0.8057390    -1.7834685    -2.8826873
H           0.3436210    -1.9285013    -3.8640436
H           1.6435561    -2.4887203    -2.8025594
H           1.2428350    -0.7814170    -2.8439149
C          -1.5262060    -2.3230640    -2.0999306
H          -1.8107347    -2.3763321    -3.1483807
C           5.7622921     1.3604988     0.5283049
H           6.7333322     1.7908301     0.7546907
C           4.7043973     2.1731682     0.1080346
H           4.8485278     3.2459427     0.0055878
C           3.4607841     1.6250828    -0.1827941
H           2.6470958     2.2663507    -0.5164489
C           3.2358239     0.2389596    -0.0596757
C           4.2998998    -0.5733439     0.3714951
H           4.1606738    -1.6428046     0.4877468
C           5.5459223    -0.0105274     0.6546516
H           6.3530481    -0.6598292     0.9851784
30
384_C14H15N_3-0-11-9 (-105,) energy =    -597.2785166
C           1.6417391    -1.6872128    -0.1060835
H           2.3184903    -2.3387512    -0.6730466
H           1.7977261    -1.9223597     0.9600468
N           1.9856113    -0.2979874    -0.4068737
H           1.2093577     0.3372194    -0.2644451
C          -2.4869673    -2.4682875    -1.1056732
H          -3.5267928    -2.6587097    -1.3582634
C          -2.0997519    -2.3301103     0.2253988
H          -2.8309116    -2.4119749     1.0250025
C          -0.7587898    -2.0850127     0.5246564
H          -0.4491345    -1.9775471     1.5621489
C           0.2040658    -1.9767534    -0.4847374
C          -0.1842241    -2.1196887    -1.8350253
C           0.8246136    -2.0317132    -2.9574547
H           0.3275382    -2.0404816    -3.9322357
H           1.5211804    -2.8809464    -2.9365499
H           1.4283002    -1.1216568    -2.8817261
C          -1.5328260    -2.3630756    -2.1193630
H          -1.8390312    -2.4742530    -3.1571341
C           5.7161794     1.4008876     0.6001999
H           6.6748367     1.8471728     0.8475362
C           4.6151356     2.2062784     0.2916629
H           4.7129461     3.2891128     0.2984554
C           3.3868765     1.6383536    -0.0255348
H           2.5386818     2.2746875    -0.2709360
C           3.2221991     0.2385048    -0.0424993
C           4.3299471    -0.5676047     0.2756104
H           4.2370975    -1.6484461     0.2799454
C           5.5593603     0.0159446     0.5874542
H           6.4012186    -0.6285178     0.8288249
30
384_C14H15N_3-0-11-9 (-90,) energy =    -597.2779453
C           1.7013610    -1.7061870    -0.2294670
H           2.3571068    -2.2719635    -0.9005027
H           1.9260733    -2.0506051     0.7946190
N           1.9876343    -0.2809169    -0.3834436
H           1.1913402     0.3095500    -0.1775185
C          -2.4829485    -2.3758841    -1.0593118
H          -3.5375232    -2.5337835    -1.2695773
C          -2.0544338    -2.1202024     0.2419194
H          -2.7687689    -2.0760487     1.0594966
C          -0.6948990    -1.9243185     0.4869833
H          -0.3514941    -1.7328075     1.5018140
C           0.2468389    -1.9853184    -0.5468131
C          -0.1855579    -2.2259468    -1.8679960
C           0.7912690    -2.2654739    -3.0217037
H           0.2631539    -2.3301270    -3.9778093
H           1.4615524    -3.1329214    -2.9580104
H           1.4222983    -1.3701216    -3.0399694
C          -1.5521264    -2.4252941    -2.0979959
H          -1.8919816    -2.6170211    -3.1132517
C           5.6846910     1.4425341     0.6954556
H           6.6343816     1.8960973     0.9632749
C           4.5492430     2.2347218     0.4965122
H           4.6112802     3.3142633     0.6102643
C           3.3321086     1.6581350     0.1534072
H           2.4566414     2.2849308    -0.0054987
C           3.2136802     0.2617662    -0.0007118
C           4.3566236    -0.5318840     0.2061012
H           4.2997590    -1.6101577     0.1008807
C           5.5739734     0.0610997     0.5458770
H           6.4434012    -0.5736136     0.6995528
30
384_C14H15N_3-0-11-9 (-75,) energy =    -597.2767337
C           1.5042450    -0.5675359    -1.3747099
H           1.1534087     0.3953120    -0.9747073
H           1.9217459    -0.3574996    -2.3686751
N           2.5596711    -1.1397053    -0.5411961
H           2.2248411    -1.8112798     0.1377499
C          -1.6730913    -3.4617569    -1.8068064
H          -2.4682450    -4.1948136    -1.9145784
C          -0.4800311    -3.6059760    -2.5147460
H          -0.3323688    -4.4519815    -3.1804503
C           0.5233567    -2.6509604    -2.3628507
H           1.4583087    -2.7548054    -2.9084927
C           0.3571971    -1.5479851    -1.5153415
C          -0.8425338    -1.4045560    -0.7885291
C          -1.0774783    -0.2425471     0.1535734
H          -2.0172805    -0.3717640     0.6988393
H          -1.1377266     0.7134198    -0.3818610
H          -0.2753445    -0.1435845     0.8943579
C          -1.8439472    -2.3714221    -0.9548918
H          -2.7741331    -2.2647328    -0.4014334
C           5.9283725     1.0563307     0.7307956
H           6.8034088     1.6103152     1.0575388
C           5.5768244    -0.1480627     1.3491800
H           6.1803699    -0.5379556     2.1652443
C           4.4576120    -0.8597583     0.9341068
H           4.1974804    -1.7986829     1.4192690
C           3.6503378    -0.3840810    -0.1196862
C           4.0044460     0.8306024    -0.7356890
H           3.4044959     1.2263972    -1.5484102
C           5.1336616     1.5326517    -0.3107045
H           5.3874340     2.4680827    -0.8036335
30
384_C14H15N_3-0-11-9 (-60,) energy =    -597.2765819
C           1.4466530    -0.5230653    -1.1875377
H           1.0850233     0.3598602    -0.6411282
H           1.7868032    -0.1613967    -2.1679068
N           2.5829147    -1.1457019    -0.5131616
H           2.3124351    -1.8634215     0.1477751
C          -1.6322538    -3.4868187    -1.8362223
H          -2.4022985    -4.2354869    -2.0028008
C          -0.3586045    -3.6508823    -2.3806464
H          -0.1222067    -4.5272012    -2.9781683
C           0.6110379    -2.6763325    -2.1551332
H           1.6083521    -2.7952226    -2.5711827
C           0.3338344    -1.5342622    -1.3908950
C          -0.9503178    -1.3666669    -0.8337107
C          -1.3194333    -0.1613144     0.0057139
H          -2.3349454    -0.2643306     0.4000417
H          -1.2858495     0.7703035    -0.5727750
H          -0.6454513    -0.0317577     0.8609831
C          -1.9157640    -2.3552441    -1.0735848
H          -2.9090712    -2.2318059    -0.6480917
C           6.0237114     1.0047103     0.6448597
H           6.9175478     1.5461172     0.9403196
C           5.7481306    -0.2587522     1.1778903
H           6.4304686    -0.7080720     1.8953417
C           4.6052002    -0.9543269     0.8019936
H           4.4051555    -1.9397794     1.2184521
C           3.6965718    -0.4030020    -0.1246014
C           3.9737179     0.8714217    -0.6524054
H           3.2930993     1.3290260    -1.3625170
C           5.1283192     1.5566073    -0.2697788
H           5.3210010     2.5393927    -0.6933120
30
384_C14H15N_3-0-11-9 (-45,) energy =    -597.2766171
C           1.4109494    -0.5236499    -1.0030118
H           1.0586944     0.2578542    -0.3137088
H           1.6540926    -0.0128436    -1.9459472
N           2.6243104    -1.1651042    -0.5085679
H           2.4350523    -1.9454472     0.1089666
C          -1.6291073    -3.4909664    -1.8218319
H          -2.3920161    -4.2360435    -2.0316256
C          -0.3077467    -3.7024697    -2.2127981
H          -0.0258650    -4.6128531    -2.7350452
C           0.6537641    -2.7330541    -1.9327511
H           1.6864809    -2.8878879    -2.2330445
C           0.3204945    -1.5488015    -1.2608307
C          -1.0162080    -1.3279462    -0.8679797
C          -1.4512678    -0.0668928    -0.1515231
H          -2.5220089    -0.1016939     0.0713702
H          -1.2704856     0.8331026    -0.7520686
H          -0.9218520     0.0712838     0.7994743
C          -1.9701563    -2.3127754    -1.1593730
H          -3.0016542    -2.1485989    -0.8559800
C           6.0873845     0.9963350     0.5629485
H           6.9872041     1.5403420     0.8344849
C           5.9009435    -0.3250218     0.9820196
H           6.6593828    -0.8176134     1.5855679
C           4.7506763    -1.0238825     0.6358655
H           4.6201238    -2.0542172     0.9613439
C           3.7446268    -0.4178705    -0.1440378
C           3.9322615     0.9140310    -0.5559416
H           3.1754036     1.4156696    -1.1494389
C           5.0955394     1.6023124    -0.2061847
H           5.2178768     2.6303934    -0.5384680
30
384_C14H15N_3-0-11-9 (-30,) energy =    -597.2766773
C           1.3868721    -0.5597766    -0.8235913
H           1.0464490     0.0980425    -0.0081726
H           1.5398595     0.0940069    -1.6946542
N           2.6593284    -1.1909479    -0.5035842
H           2.5504401    -2.0238173     0.0635781
C          -1.6384099    -3.4866464    -1.8348389
H          -2.4022211    -4.2167190    -2.0891393
C          -0.2931793    -3.7565309    -2.0756868
H           0.0081490    -4.6985262    -2.5261822
C           0.6714355    -2.8061552    -1.7400799
H           1.7204273    -3.0055234    -1.9379347
C           0.3150973    -1.5834048    -1.1574963
C          -1.0480852    -1.3009499    -0.9221663
C          -1.5014346     0.0112511    -0.3199856
H          -2.5926023     0.0456806    -0.2462161
H          -1.1848827     0.8723161    -0.9219483
H          -1.0982035     0.1631104     0.6895487
C          -2.0024597    -2.2657464    -1.2669432
H          -3.0530721    -2.0521197    -1.0833762
C           6.1177108     1.0105418     0.5075820
H           7.0165122     1.5645390     0.7617369
C           6.0184736    -0.3548669     0.7939732
H           6.8445289    -0.8724670     1.2754273
C           4.8696140    -1.0660879     0.4690909
H           4.8071637    -2.1302110     0.6889261
C           3.7772876    -0.4292728    -0.1541003
C           3.8777820     0.9457616    -0.4315773
H           3.0536936     1.4728722    -0.9000735
C           5.0404828     1.6470683    -0.1060983
H           5.0941535     2.7091960    -0.3325423
30
384_C14H15N_3-0-11-9 (-15,) energy =    -597.2763742
C           1.3635864    -0.6220105    -0.6615140
H           1.0383409    -0.1018340     0.2560078
H           1.4348440     0.1562313    -1.4346631
N           2.6796607    -1.2176280    -0.5027925
H           2.6503131    -2.0939534     0.0059397
C          -1.6561982    -3.4834253    -1.8631603
H          -2.4236340    -4.1937296    -2.1589820
C          -0.3077152    -3.8130683    -1.9690953
H          -0.0065082    -4.7832903    -2.3551159
C           0.6636497    -2.8875221    -1.5827881
H           1.7145381    -3.1351269    -1.6942149
C           0.3081725    -1.6293848    -1.0847268
C          -1.0589135    -1.2876595    -0.9842411
C          -1.4989775     0.0648243    -0.4707297
H          -2.5874535     0.1640832    -0.5199694
H          -1.0651946     0.8867986    -1.0546770
H          -1.1994341     0.2259680     0.5732907
C          -2.0186328    -2.2261728    -1.3779647
H          -3.0713852    -1.9636168    -1.3005816
C           6.1178664     1.0389585     0.4629302
H           7.0117448     1.6069454     0.7031765
C           6.0920841    -0.3499294     0.6248967
H           6.9710606    -0.8723655     0.9943247
C           4.9493614    -1.0784241     0.3170438
H           4.9441968    -2.1600746     0.4381177
C           3.7897534    -0.4368746    -0.1628586
C           3.8171536     0.9606587    -0.3146602
H           2.9409637     1.4928234    -0.6687067
C           4.9740372     1.6802616    -0.0085564
H           4.9700302     2.7600471    -0.1361036
30
384_C14H15N_3-0-11-9 (0,) energy =    -597.2753490
C           1.3072267    -0.6240728    -0.7008725
H           1.0666292    -0.1143279     0.2414284
H           1.2881378     0.1637312    -1.4763704
N           2.6260386    -1.2138765    -0.5579280
H           2.8513904    -1.8509020    -1.3133167
C          -1.8310346    -3.4740552    -1.5871849
H          -2.6278833    -4.1751204    -1.8204876
C          -0.5287930    -3.9238757    -1.3893499
H          -0.2948160    -4.9827323    -1.4606438
C           0.4832171    -3.0087303    -1.0911672
H           1.4867053    -3.3750019    -0.9005097
C           0.2143941    -1.6408637    -0.9839104
C          -1.1070673    -1.1811184    -1.1834339
C          -1.4494523     0.2875170    -1.0808576
H          -2.5214636     0.4496146    -1.2268909
H          -0.9182692     0.8862475    -1.8327096
H          -1.1822208     0.7035401    -0.1005668
C          -2.1090884    -2.1106525    -1.4790365
H          -3.1265084    -1.7559353    -1.6283134
C           6.0238191     1.0060099     0.6207881
H           6.9047010     1.5605699     0.9303813
C           6.1486320    -0.2470682     0.0123768
H           7.1334182    -0.6761080    -0.1552269
C           5.0221746    -0.9583219    -0.3829933
H           5.1308753    -1.9375514    -0.8455867
C           3.7286368    -0.4351728    -0.1840478
C           3.6088611     0.8292976     0.4185002
H           2.6324700     1.2742735     0.5756761
C           4.7482800     1.5309162     0.8182405
H           4.6280079     2.5064290     1.2831261
30
384_C14H15N_3-0-11-9 (15,) energy =    -597.2763743
C           1.2750847    -0.6226801    -0.5423533
H           1.0713389    -0.2522243     0.4724279
H           1.2053802     0.2600781    -1.2013704
N           2.6109980    -1.1943140    -0.5514478
H           2.7821837    -1.7697768    -1.3681747
C          -1.7979031    -3.4817804    -1.6061722
H          -2.5767318    -4.1894951    -1.8773970
C          -0.5238363    -3.9282308    -1.2658694
H          -0.2947398    -4.9905712    -1.2615317
C           0.4642300    -3.0039278    -0.9213414
H           1.4480356    -3.3557322    -0.6272996
C           0.2005636    -1.6299378    -0.9145801
C          -1.0935906    -1.1737197    -1.2502529
C          -1.4383420     0.2985736    -1.2403002
H          -2.4964839     0.4517228    -1.4724810
H          -0.8530977     0.8634290    -1.9779162
H          -1.2442023     0.7590156    -0.2629764
C          -2.0722149    -2.1135798    -1.5906955
H          -3.0687624    -1.7627031    -1.8494943
C           6.0474363     0.9858262     0.5806797
H           6.9388660     1.5310942     0.8762664
C           6.1496234    -0.2006465    -0.1527104
H           7.1267150    -0.5863598    -0.4329645
C           5.0101766    -0.9004920    -0.5309232
H           5.1024721    -1.8278981    -1.0930799
C           3.7259521    -0.4317040    -0.1878575
C           3.6279321     0.7667176     0.5408572
H           2.6573357     1.1672982     0.8124028
C           4.7808725     1.4566685     0.9212601
H           4.6780757     2.3802486     1.4857624
30
384_C14H15N_3-0-11-9 (30,) energy =    -597.2766775
C           1.2293330    -0.6393365    -0.3727143
H           1.0828703    -0.4243534     0.6959049
H           1.1077234     0.3234607    -0.8939910
N           2.5726308    -1.1736695    -0.5459402
H           2.6819679    -1.6806841    -1.4166903
C          -1.7918860    -3.4799315    -1.6158235
H          -2.5548948    -4.1885808    -1.9268219
C          -0.5641713    -3.9277662    -1.1334313
H          -0.3568370    -4.9918617    -1.0571706
C           0.4020528    -3.0010306    -0.7411858
H           1.3557734    -3.3445537    -0.3517087
C           0.1653976    -1.6233824    -0.8283685
C          -1.0817085    -1.1651154    -1.3059239
C          -1.4100249     0.3091515    -1.3998057
H          -2.4313043     0.4547772    -1.7645667
H          -0.7367016     0.8390009    -2.0859008
H          -1.3330542     0.8113999    -0.4272779
C          -2.0401131    -2.1095337    -1.6934017
H          -3.0003849    -1.7590029    -2.0650428
C           6.0477982     0.9762325     0.5176685
H           6.9493703     1.5149534     0.7938907
C           6.1130500    -0.1302803    -0.3352819
H           7.0714415    -0.4594119    -0.7292849
C           4.9607243    -0.8215598    -0.6896019
H           5.0250247    -1.6863893    -1.3472659
C           3.6998776    -0.4239347    -0.2004322
C           3.6379170     0.6949698     0.6492976
H           2.6847218     1.0381581     1.0367301
C           4.8041647     1.3764978     1.0028280
H           4.7298832     2.2375334     1.6626493
30
384_C14H15N_3-0-11-9 (45,) energy =    -597.2766171
C           1.2029175    -0.6797703    -0.1948299
H           1.1291409    -0.6342929     0.9013647
H           1.0269160     0.3442158    -0.5560290
N           2.5413733    -1.1458704    -0.5404483
H           2.5855713    -1.5758025    -1.4565927
C          -1.7755822    -3.4687874    -1.6326159
H          -2.5242821    -4.1708944    -1.9899366
C          -0.6185226    -3.9276429    -1.0047285
H          -0.4534090    -4.9922325    -0.8619474
C           0.3280241    -3.0087114    -0.5549263
H           1.2332705    -3.3556818    -0.0642194
C           0.1429364    -1.6296089    -0.7246502
C          -1.0287162    -1.1602967    -1.3546062
C          -1.3020341     0.3149238    -1.5592182
H          -2.2559925     0.4609105    -2.0749948
H          -0.5244031     0.7991292    -2.1630463
H          -1.3559406     0.8610259    -0.6093772
C          -1.9705408    -2.0985301    -1.7990269
H          -2.8742749    -1.7419258    -2.2879896
C           6.0423462     0.9880672     0.4606550
H           6.9510080     1.5236712     0.7191337
C           6.0602848    -0.0144430    -0.5145461
H           6.9886099    -0.2642547    -1.0224362
C           4.8992348    -0.7018757    -0.8473412
H           4.9268953    -1.4852838    -1.6023781
C           3.6765677    -0.4045636    -0.2115065
C           3.6613135     0.6104112     0.7623663
H           2.7369080     0.8724759     1.2658593
C           4.8363911     1.2888275     1.0913381
H           4.7989183     2.0679939     1.8488536
30
384_C14H15N_3-0-11-9 (60,) energy =    -597.2765820
C           1.1785605    -0.7675401    -0.0239246
H           1.1886142    -0.8808021     1.0691660
H           0.9478487     0.2889546    -0.2227813
N           2.4977011    -1.1339825    -0.5330645
H           2.4771584    -1.4883193    -1.4812781
C          -1.7803809    -3.4753921    -1.6354188
H          -2.5214477    -4.1609338    -2.0380325
C          -0.7202048    -3.9536942    -0.8656328
H          -0.6237666    -5.0161254    -0.6588699
C           0.2157850    -3.0548551    -0.3586167
H           1.0483006    -3.4163413     0.2398386
C           0.1150367    -1.6789511    -0.6071873
C          -0.9522310    -1.1911148    -1.3885707
C          -1.1223160     0.2814845    -1.6988125
H          -1.9726955     0.4369898    -2.3696728
H          -0.2363489     0.7059974    -2.1861680
H          -1.3058873     0.8748244    -0.7944897
C          -1.8874389    -2.1089206    -1.8882863
H          -2.7140787    -1.7394006    -2.4908026
C           5.9969827     1.0382794     0.3806560
H           6.9058196     1.5846039     0.6149695
C           5.9636119     0.1392221    -0.6903627
H           6.8515558    -0.0180110    -1.2978442
C           4.8024427    -0.5616885    -0.9933571
H           4.7902418    -1.2636696    -1.8250222
C           3.6313615    -0.3825303    -0.2288628
C           3.6669429     0.5282854     0.8429670
H           2.7825678     0.6959258     1.4485265
C           4.8418464     1.2217733     1.1389141
H           4.8447593     1.9188956     1.9734148
30
384_C14H15N_3-0-11-9 (75,) energy =    -597.2767340
C           1.1780962    -0.8874794     0.1329117
H           1.2707393    -1.1479317     1.1959373
H           0.9107284     0.1789735     0.0960368
N           2.4617567    -1.1392064    -0.5188618
H           2.3792189    -1.4376051    -1.4822903
C          -1.8262942    -3.4317337    -1.6441863
H          -2.5775178    -4.0764771    -2.0927498
C          -0.8903714    -3.9547152    -0.7520773
H          -0.9013383    -5.0107965    -0.4965780
C           0.0608409    -3.1076241    -0.1867701
H           0.7963487    -3.5053592     0.5085518
C           0.0946475    -1.7414109    -0.4945234
C          -0.8420954    -1.2108476    -1.4051414
C          -0.8488217     0.2540632    -1.7885077
H          -1.5764089     0.4414184    -2.5839647
H           0.1303845     0.5905588    -2.1489123
H          -1.1161044     0.8981079    -0.9411800
C          -1.7951598    -2.0746912    -1.9625655
H          -2.5241929    -1.6716310    -2.6618571
C           5.9323034     1.1163139     0.2916384
H           6.8335279     1.6858305     0.4985086
C           5.8438688     0.3141609    -0.8508296
H           6.6810257     0.2567786    -1.5422931
C           4.6921012    -0.4158495    -1.1191529
H           4.6374242    -1.0408090    -2.0085727
C           3.5859380    -0.3647128    -0.2460981
C           3.6770153     0.4475164     0.8994737
H           2.8439123     0.5111950     1.5915726
C           4.8416716     1.1723005     1.1580077
H           4.8882422     1.7914921     2.0506681
30
384_C14H15N_3-0-11-9 (90,) energy =    -597.2779456
C           1.0721784    -0.9183208     0.0856384
H           1.3584609    -1.3523721     1.0590153
H           0.7054589     0.0936419     0.2902897
N           2.2215489    -0.8289404    -0.8130930
H           2.3388915    -1.6507685    -1.3926762
C          -1.9304118    -3.4215341    -1.7479119
H          -2.6794580    -4.0537948    -2.2174104
C          -0.9733611    -3.9751455    -0.8994756
H          -0.9652848    -5.0428509    -0.6979657
C          -0.0241287    -3.1425691    -0.3058461
H           0.7212312    -3.5661694     0.3645853
C          -0.0179698    -1.7627044    -0.5410030
C          -0.9741894    -1.2017114    -1.4134684
C          -0.9840552     0.2781407    -1.7246587
H          -1.7043004     0.5053846    -2.5163783
H           0.0030162     0.6230530    -2.0516512
H          -1.2618668     0.8766961    -0.8469549
C          -1.9233811    -2.0485670    -1.9982989
H          -2.6672119    -1.6220874    -2.6675037
C           5.8659689     0.9808621     0.3039967
H           6.8059505     1.4503828     0.5785070
C           5.7915903     0.1325195    -0.8055442
H           6.6791222    -0.0635106    -1.4022613
C           4.5901207    -0.4696358    -1.1597073
H           4.5433989    -1.1225805    -2.0292067
C           3.4191198    -0.2406047    -0.4086014
C           3.4995935     0.6085271     0.7100652
H           2.6192838     0.8029446     1.3136286
C           4.7121039     1.2103452     1.0515790
H           4.7485145     1.8634980     1.9201503
30
384_C14H15N_3-0-11-9 (105,) energy =    -597.2785169
C           1.1151343    -1.0512599     0.1307798
H           1.4658134    -1.5805496     1.0325323
H           0.7384669    -0.0767153     0.4661034
N           2.2056470    -0.8197568    -0.8154228
H           2.3404007    -1.5930271    -1.4558238
C          -2.0133884    -3.3878099    -1.7155540
H          -2.7970219    -3.9766074    -2.1851696
C          -1.1533338    -3.9721465    -0.7884169
H          -1.2562518    -5.0209222    -0.5235818
C          -0.1542452    -3.1956394    -0.1995940
H           0.5200409    -3.6451748     0.5264036
C          -0.0000746    -1.8425572    -0.5206413
C          -0.8723244    -1.2458927    -1.4575186
C          -0.7573636     0.2174003    -1.8193103
H          -1.4270845     0.4698505    -2.6470176
H           0.2661429     0.4789141    -2.1063517
H          -1.0266867     0.8614344    -0.9710492
C          -1.8677704    -2.0380204    -2.0409484
H          -2.5431348    -1.5851357    -2.7633557
C           5.8171752     1.0716288     0.2775133
H           6.7478998     1.5633675     0.5445306
C           5.7230390     0.3182476    -0.8971236
H           6.5848431     0.2191577    -1.5526001
C           4.5333894    -0.3120500    -1.2420646
H           4.4700248    -0.8895811    -2.1623868
C           3.3955429    -0.2080724    -0.4163652
C           3.4966859     0.5442862     0.7676235
H           2.6436373     0.6396116     1.4310178
C           4.6963757     1.1766739     1.0994455
H           4.7494536     1.7537053     2.0195139
30
384_C14H15N_3-0-11-9 (120,) energy =    -597.2776698
C           1.2195461    -1.2002509     0.1632779
H           1.6251945    -1.8184757     0.9811104
H           0.8410036    -0.2790482     0.6276648
N           2.2530102    -0.8220802    -0.7976095
H           2.4065661    -1.5321358    -1.5043279
C          -2.0640213    -3.3544818    -1.6431169
H          -2.8912731    -3.8962045    -2.0942177
C          -1.2826000    -3.9531147    -0.6579372
H          -1.4913879    -4.9665999    -0.3264473
C          -0.2240388    -3.2370015    -0.0978498
H           0.3915961    -3.7014138     0.6694669
C           0.0747290    -1.9325429    -0.5075533
C          -0.7344312    -1.3110954    -1.4864797
C          -0.5147653     0.1226794    -1.9126105
H          -1.2700408     0.4311803    -2.6419970
H           0.4774878     0.2724149    -2.3480991
H          -0.5818471     0.8061813    -1.0558048
C          -1.7877286    -2.0462519    -2.0434703
H          -2.4111989    -1.5756077    -2.8003328
C           5.8099563     1.1542725     0.3288368
H           6.7251881     1.6696829     0.6046218
C           5.7021268     0.5074703    -0.9065419
H           6.5382981     0.5162806    -1.6014229
C           4.5318257    -0.1525081    -1.2620423
H           4.4569402    -0.6457769    -2.2293640
C           3.4274973    -0.1871016    -0.3865643
C           3.5433360     0.4572655     0.8581796
H           2.7180319     0.4428713     1.5619759
C           4.7227551     1.1216503     1.2002767
H           4.7872007     1.6132657     2.1679751
30
384_C14H15N_3-0-11-9 (135,) energy =    -597.2755689
C           1.2654440    -1.3164111     0.1360069
H           1.7239875    -2.0152327     0.8554876
H           0.8973458    -0.4649914     0.7272926
N           2.2362127    -0.7983948    -0.8192614
H           2.3949411    -1.4293450    -1.5965465
C          -2.1873530    -3.2900517    -1.5672117
H          -3.0616551    -3.7852030    -1.9814920
C          -1.4676051    -3.8769188    -0.5292696
H          -1.7715735    -4.8350159    -0.1165731
C          -0.3470811    -3.2206042    -0.0215002
H           0.2221353    -3.6799802     0.7837433
C           0.0827688    -1.9904965    -0.5356413
C          -0.6730644    -1.3691495    -1.5571133
C          -0.3533414     0.0100881    -2.0923679
H          -1.1963785     0.3937905    -2.6763327
H           0.5336927     0.0151457    -2.7336740
H          -0.1483801     0.7210590    -1.2844627
C          -1.7897063    -2.0483995    -2.0627149
H          -2.3707245    -1.5786262    -2.8532327
C           5.7473055     1.2337891     0.3529985
H           6.6496231     1.7651997     0.6407114
C           5.6035850     0.7238633    -0.9414685
H           6.3984357     0.8568819    -1.6712785
C           4.4494027     0.0443126    -1.3119167
H           4.3454954    -0.3402854    -2.3248040
C           3.3980514    -0.1498409    -0.3929253
C           3.5508884     0.3562057     0.9103694
H           2.7697086     0.2152399     1.6495231
C           4.7129989     1.0432188     1.2673148
H           4.8065876     1.4257261     2.2808178
30
384_C14H15N_3-0-11-9 (150,) energy =    -597.2724727
C           1.3191338    -1.4029890     0.0846248
H           1.8417662    -2.1785634     0.6699587
H           0.9731552    -0.6564786     0.8148407
N           2.2140343    -0.7219733    -0.8380646
H           2.3558851    -1.2376305    -1.6989518
C          -2.2770159    -3.2459665    -1.4789420
H          -3.1865820    -3.7123757    -1.8480059
C          -1.5915305    -3.7875906    -0.3938455
H          -1.9566014    -4.6819433     0.1037012
C          -0.4242023    -3.1699329     0.0479662
H           0.1185388    -3.5988502     0.8878231
C           0.0931774    -2.0224231    -0.5716819
C          -0.6313108    -1.4373070    -1.6363560
C          -0.2531072    -0.1289203    -2.3030110
H          -1.1067096     0.2586401    -2.8691212
H           0.5806542    -0.2389566    -3.0061132
H           0.0532701     0.6297852    -1.5784321
C          -1.7964040    -2.0836113    -2.0777336
H          -2.3500221    -1.6433357    -2.9040728
C           5.7281476     1.2496792     0.4269771
H           6.6302208     1.7676034     0.7389976
C           5.5315243     0.9084005    -0.9151054
H           6.2843965     1.1606258    -1.6578175
C           4.3777047     0.2462173    -1.3166392
H           4.2319805    -0.0066093    -2.3652214
C           3.3799616    -0.0994516    -0.3825924
C           3.5864515     0.2368470     0.9672831
H           2.8482200    -0.0237736     1.7178531
C           4.7472803     0.9085607     1.3562351
H           4.8827037     1.1585073     2.4057234
30
384_C14H15N_3-0-11-9 (165,) energy =    -597.2694229
C           1.3760614    -1.4651611     0.0292489
H           1.9606592    -2.3085868     0.4372202
H           1.0836077    -0.8597051     0.8987589
N           2.1852301    -0.6178366    -0.8297939
H           2.2932187    -0.9914754    -1.7648462
C          -2.3571425    -3.1914239    -1.3519200
H          -3.2985109    -3.6347223    -1.6652607
C          -1.6841348    -3.6694154    -0.2288152
H          -2.0897511    -4.4912890     0.3548961
C          -0.4784300    -3.0814123     0.1378978
H           0.0519566    -3.4605255     1.0095523
C           0.0942807    -2.0224713    -0.5865617
C          -0.6064173    -1.5075285    -1.7007061
C          -0.1658230    -0.3150914    -2.5305081
H          -1.0057601     0.0465475    -3.1322232
H           0.6380866    -0.5694281    -3.2343198
H           0.2000898     0.5081915    -1.9141547
C          -1.8166004    -2.1245981    -2.0627393
H          -2.3528560    -1.7363790    -2.9257493
C           5.7347547     1.2366371     0.5165209
H           6.6445197     1.7265689     0.8506532
C           5.4553631     1.1082004    -0.8479644
H           6.1506408     1.4998581    -1.5863478
C           4.2913392     0.4822888    -1.2769857
H           4.0804338     0.3964904    -2.3413177
C           3.3664259    -0.0399320    -0.3500680
C           3.6564031     0.0823751     1.0203325
H           2.9774887    -0.3179797     1.7651326
C           4.8263866     0.7203271     1.4383239
H           5.0270331     0.8034359     2.5036958
30
384_C14H15N_3-0-11-9 (180,) energy =    -597.2674393
C           1.4544211    -1.5427458    -0.0464549
H           2.0770553    -2.4360314     0.1462815
H           1.2564190    -1.1049447     0.9396009
N           2.1774314    -0.5457830    -0.8162691
H           2.2543376    -0.7795511    -1.7974617
C          -2.4250894    -3.0960254    -1.2271009
H          -3.3983522    -3.5029934    -1.4876026
C          -1.7594256    -3.5210840    -0.0781819
H          -2.2020682    -4.2650520     0.5785791
C          -0.5162404    -2.9770218     0.2219329
H           0.0044381    -3.3100367     1.1183491
C           0.1042062    -2.0136529    -0.5924607
C          -0.5754108    -1.5679411    -1.7470474
C          -0.0635833    -0.5119559    -2.7101901
H          -0.8620453    -0.2184582    -3.3985102
H           0.7619189    -0.8835437    -3.3338693
H           0.2903285     0.3830541    -2.1942081
C          -1.8307794    -2.1333221    -2.0354513
H          -2.3543262    -1.7920257    -2.9255834
C           5.7383136     1.2497254     0.5865702
H           6.6494336     1.7264912     0.9357007
C           5.3748784     1.3107768    -0.7627145
H           6.0050787     1.8385593    -1.4742526
C           4.2088116     0.7021238    -1.2102889
H           3.9311929     0.7655185    -2.2608074
C           3.3656499     0.0071766    -0.3193466
C           3.7411264    -0.0607845     1.0337184
H           3.1306552    -0.5989709     1.7501690
C           4.9119071     0.5619017     1.4725134
H           5.1788429     0.4955458     2.5244246
