30
384_C14H15N_11-0-3-25 (-165,) energy =    -597.2782868
C           1.1539435    -0.8627275     0.1289123
H           1.5172312    -1.3346507     1.0562106
H           0.7259898     0.1061710     0.4163174
N           2.2557179    -0.6290480    -0.8095143
H           2.3627236    -1.3892299    -1.4710160
C          -1.8116659    -3.4449470    -1.6565235
H          -2.5542972    -4.0953961    -2.1111843
C          -0.9172745    -3.9482709    -0.7140639
H          -0.9523782    -4.9944255    -0.4226077
C           0.0276768    -3.0938535    -0.1446380
H           0.7278803    -3.4801233     0.5930600
C           0.0930585    -1.7417548    -0.4995082
C          -0.8116453    -1.2281937    -1.4542069
C          -0.7881233     0.2293850    -1.8561967
H          -1.4387598     0.4082842    -2.7176652
H           0.2243454     0.5584490    -2.1113490
H          -1.1402941     0.8748982    -1.0399976
C          -1.7524881    -2.0979759    -2.0178075
H          -2.4527308    -1.7092903    -2.7537851
C           5.9602754     0.9598631     0.4449932
H           6.9150964     1.3733377     0.7560849
C           5.8530683     0.2355476    -0.7465490
H           6.7297612     0.0806194    -1.3706749
C           4.6325540    -0.2960280    -1.1467905
H           4.5608150    -0.8543633    -2.0782938
C           3.4764033    -0.1177540    -0.3610998
C           3.5887849     0.6093913     0.8374475
H           2.7169074     0.7681020     1.4634196
C           4.8200204     1.1402205     1.2262920
H           4.8818502     1.6992641     2.1568456
30
384_C14H15N_11-0-3-25 (-150,) energy =    -597.2770997
C           1.0728044    -0.6474399     0.0888240
H           1.4710823    -1.0689844     1.0236434
H           0.5655083     0.2890006     0.3554043
N           2.1717740    -0.3580953    -0.8461280
H           2.2099473    -1.0349639    -1.5995032
C          -1.6404009    -3.5231819    -1.6482770
H          -2.3178550    -4.2477501    -2.0924577
C          -0.7109741    -3.9241401    -0.6902456
H          -0.6543063    -4.9629862    -0.3768838
C           0.1502712    -2.9777836    -0.1342856
H           0.8789914    -3.2838195     0.6131790
C           0.0959370    -1.6328476    -0.5177118
C          -0.8455908    -1.2226585    -1.4867208
C          -0.9521911     0.2240248    -1.9163812
H          -1.6040134     0.3257542    -2.7894069
H           0.0270946     0.6457192    -2.1655426
H          -1.3751858     0.8476367    -1.1171103
C          -1.7005792    -2.1844204    -2.0379815
H          -2.4279841    -1.8754441    -2.7853286
C           6.0249960     0.6948701     0.5190064
H           7.0184875     0.9707649     0.8599769
C           5.8459882     0.0769321    -0.7224710
H           6.7046265    -0.1339325    -1.3552485
C           4.5759601    -0.2811029    -1.1611361
H           4.4491633    -0.7628601    -2.1289204
C           3.4417397    -0.0273582    -0.3651860
C           3.6254393     0.5994357     0.8806175
H           2.7688174     0.8258785     1.5075240
C           4.9057548     0.9513278     1.3101501
H           5.0229270     1.4345823     2.2771126
30
384_C14H15N_11-0-3-25 (-135,) energy =    -597.2754325
C           0.9775552    -0.4229316     0.0608107
H           1.3720443    -0.7649882     1.0259683
H           0.3913853     0.4832089     0.2605686
N           2.1014900    -0.1050712    -0.8397842
H           2.0756502    -0.6690666    -1.6810988
C          -1.4439940    -3.5829119    -1.6169853
H          -2.0481307    -4.3776920    -2.0465869
C          -0.4778576    -3.8742519    -0.6550528
H          -0.3192728    -4.8970662    -0.3243839
C           0.2866875    -2.8390616    -0.1175543
H           1.0428950    -3.0606628     0.6322969
C           0.1001222    -1.5119178    -0.5226947
C          -0.8768278    -1.2134811    -1.4969481
C          -1.1247043     0.2075795    -1.9560833
H          -1.7710193     0.2248486    -2.8389099
H          -0.1931349     0.7266199    -2.2059118
H          -1.6205895     0.8002896    -1.1756588
C          -1.6346580    -2.2638082    -2.0295672
H          -2.3891443    -2.0405279    -2.7805752
C           6.0489653     0.4055847     0.5694694
H           7.0666984     0.5419958     0.9230161
C           5.8025684    -0.1004874    -0.7101254
H           6.6325456    -0.3650655    -1.3607446
C           4.5004479    -0.2819776    -1.1640509
H           4.3226186    -0.6838267    -2.1599150
C           3.4003615     0.0447576    -0.3469562
C           3.6534548     0.5660966     0.9353374
H           2.8268641     0.8590263     1.5752584
C           4.9642925     0.7358174     1.3817399
H           5.1338519     1.1393218     2.3771070
30
384_C14H15N_11-0-3-25 (-120,) energy =    -597.2740239
C           0.8810947    -0.2055657     0.0204699
H           1.2424229    -0.4560923     1.0225682
H           0.2273804     0.6687328     0.1280861
N           2.0407686     0.1348932    -0.8242981
H           1.9712759    -0.2851123    -1.7436205
C          -1.2238347    -3.6260976    -1.5770095
H          -1.7469613    -4.4862316    -1.9865098
C          -0.2389314    -3.7971517    -0.6048134
H           0.0149984    -4.7909119    -0.2461356
C           0.4196821    -2.6797247    -0.0935355
H           1.1906999    -2.8072753     0.6630800
C           0.1091090    -1.3874275    -0.5348553
C          -0.8864874    -1.2106899    -1.5195306
C          -1.2727807     0.1654135    -2.0208480
H          -1.9182518     0.0906385    -2.9012756
H          -0.4006602     0.7693582    -2.2950177
H          -1.8238721     0.7318897    -1.2583947
C          -1.5377912    -2.3430662    -2.0253047
H          -2.3066351    -2.2133616    -2.7837507
C           6.0245253     0.1241250     0.5808135
H           7.0518435     0.1284046     0.9329046
C           5.7239038    -0.2444107    -0.7332281
H           6.5208700    -0.5348423    -1.4134303
C           4.4080032    -0.2581354    -1.1845989
H           4.1878863    -0.5594876    -2.2071629
C           3.3480302     0.1078343    -0.3317357
C           3.6584352     0.4943759     0.9857029
H           2.8695113     0.8221945     1.6557038
C           4.9804633     0.4917788     1.4300244
H           5.1926595     0.7933853     2.4529451
30
384_C14H15N_11-0-3-25 (-105,) energy =    -597.2742585
C           0.7367501    -0.0421609    -0.0174485
H           1.1138962    -0.1026243     1.0109849
H           0.0268861     0.7960532    -0.0357557
N           1.8342603     0.2996145    -0.9310711
H           1.6845782     1.1769701    -1.4117915
C          -1.4048277    -3.7103480    -0.8620879
H          -1.9475191    -4.6284482    -1.0713347
C          -0.7391565    -3.5441134     0.3495724
H          -0.7539521    -4.3289549     1.1010204
C          -0.0488621    -2.3553394     0.5915383
H           0.4679122    -2.2202888     1.5399286
C          -0.0075989    -1.3260439    -0.3548065
C          -0.6889961    -1.4893804    -1.5803914
C          -0.6930633    -0.4095307    -2.6377937
H          -1.3740175    -0.6656583    -3.4553586
H           0.3077042    -0.2631474    -3.0584391
H          -1.0157141     0.5587919    -2.2315411
C          -1.3765721    -2.6862609    -1.8103674
H          -1.9034527    -2.8153886    -2.7533007
C           5.8953225    -0.2251174     0.1003685
H           6.9420345    -0.3591110     0.3569455
C           5.4992523     0.8078351    -0.7532663
H           6.2398073     1.4894181    -1.1645143
C           4.1580811     0.9854085    -1.0786636
H           3.8621643     1.8003546    -1.7371986
C           3.1715749     0.1247957    -0.5605914
C           3.5761879    -0.9228055     0.2864561
H           2.8419074    -1.6266435     0.6640436
C           4.9226335    -1.0843783     0.6122840
H           5.2111184    -1.9015770     1.2689459
30
384_C14H15N_11-0-3-25 (-90,) energy =    -597.2752411
C           0.6331083     0.0924881     0.0563351
H           0.9477355     0.0695917     1.1102214
H          -0.1357039     0.8718789    -0.0217450
N           1.7410043     0.5192015    -0.7997796
H           1.6353981     1.4609937    -1.1520415
C          -1.1764176    -3.7390111    -0.8414346
H          -1.6358798    -4.6984563    -1.0640388
C          -0.6193570    -3.4970409     0.4116867
H          -0.6379147    -4.2623456     1.1829111
C          -0.0327225    -2.2572846     0.6694049
H           0.4003450    -2.0628164     1.6489124
C           0.0117553    -1.2509106    -0.3014292
C          -0.5655361    -1.4889446    -1.5680252
C          -0.5782613    -0.4338024    -2.6499950
H          -1.1773839    -0.7611955    -3.5054410
H           0.4345015    -0.2104048    -3.0007660
H          -1.0053125     0.5121120    -2.2903852
C          -1.1480078    -2.7377859    -1.8135499
H          -1.5934061    -2.9254631    -2.7881104
C           5.7854994    -0.4256282    -0.0444386
H           6.8287723    -0.6640080     0.1404039
C           5.4358820     0.6929788    -0.8062743
H           6.2096247     1.3363362    -1.2180770
C           4.1005274     1.0016360    -1.0416318
H           3.8418800     1.8782265    -1.6333516
C           3.0704137     0.1935208    -0.5208376
C           3.4261377    -0.9352647     0.2386553
H           2.6573067    -1.5945232     0.6246930
C           4.7700506    -1.2311309     0.4700253
H           5.0201343    -2.1101304     1.0592136
30
384_C14H15N_11-0-3-25 (-75,) energy =    -597.2748707
C           0.5128664     0.1811537     0.1519475
H           0.7372623     0.1685255     1.2311499
H          -0.2917842     0.9137540     0.0118891
N           1.6487791     0.6847453    -0.6093978
H           1.5678428     1.6497740    -0.8952745
C          -1.0057759    -3.7503008    -0.8504331
H          -1.3944617    -4.7345452    -1.0981496
C          -0.5878050    -3.4623721     0.4465260
H          -0.6460778    -4.2159798     1.2272124
C          -0.0890398    -2.1919341     0.7358706
H           0.2378229    -1.9621704     1.7483940
C           0.0041465    -1.1991258    -0.2457461
C          -0.4355502    -1.4827805    -1.5573992
C          -0.4015571    -0.4452193    -2.6560731
H          -0.9028225    -0.8171068    -3.5552684
H           0.6251424    -0.1718061    -2.9191401
H          -0.9075254     0.4816109    -2.3545051
C          -0.9298823    -2.7632068    -1.8339283
H          -1.2681656    -2.9867109    -2.8433426
C           5.6575349    -0.5761372    -0.2335255
H           6.6926724    -0.8930596    -0.1473319
C           5.3259433     0.5918946    -0.9265905
H           6.1062333     1.1952072    -1.3842280
C           4.0013568     0.9981670    -1.0388941
H           3.7570439     1.9089538    -1.5831813
C           2.9611799     0.2441572    -0.4570651
C           3.2989336    -0.9295470     0.2405114
H           2.5238090    -1.5412603     0.6853449
C           4.6331873    -1.3260740     0.3427975
H           4.8677547    -2.2390559     0.8849083
30
384_C14H15N_11-0-3-25 (-60,) energy =    -597.2746073
C           0.4487723     0.1971252     0.2342826
H           0.6097813     0.1330095     1.3174699
H          -0.3718663     0.9124890     0.0979338
N           1.6208964     0.8145428    -0.3754014
H           1.4227303     1.3502422    -1.2085236
C          -0.8083625    -3.7352437    -1.0945031
H          -1.1314903    -4.7193186    -1.4234711
C          -0.4582918    -3.5145679     0.2354278
H          -0.5031842    -4.3228289     0.9603550
C          -0.0470525    -2.2416288     0.6308092
H           0.2204620    -2.0656899     1.6709975
C           0.0260398    -1.1781104    -0.2757279
C          -0.3372057    -1.3989032    -1.6218568
C          -0.2945367    -0.2966902    -2.6572736
H          -0.8549094    -0.5836024    -3.5525500
H           0.7334258    -0.0773335    -2.9725051
H          -0.7308802     0.6387915    -2.2843312
C          -0.7486933    -2.6806209    -2.0060312
H          -1.0328222    -2.8518574    -3.0421014
C           5.5411072    -0.7460169    -0.3237735
H           6.5561836    -1.1316950    -0.3095074
C           5.1608924     0.2232976    -1.2558991
H           5.8825831     0.6007997    -1.9762460
C           3.8601404     0.7149259    -1.2778721
H           3.5794056     1.4746006    -2.0056130
C           2.8958634     0.2512209    -0.3604516
C           3.2826847    -0.7265475     0.5739398
H           2.5651502    -1.1128674     1.2886222
C           4.5904952    -1.2110582     0.5848891
H           4.8635214    -1.9679071     1.3163039
30
384_C14H15N_11-0-3-25 (-45,) energy =    -597.2737023
C           0.3706389     0.2592484     0.3290112
H           0.4336021     0.2036192     1.4240215
H          -0.4584195     0.9447313     0.1145088
N           1.5733933     0.9219582    -0.1794802
H           1.3821178     1.5449709    -0.9526240
C          -0.6529957    -3.7272633    -1.0323703
H          -0.9205739    -4.7252564    -1.3692482
C          -0.4620243    -3.4666532     0.3225608
H          -0.5775417    -4.2570885     1.0592334
C          -0.1178005    -2.1771174     0.7277113
H           0.0289960    -1.9696052     1.7860836
C           0.0425160    -1.1359789    -0.1933925
C          -0.1599330    -1.3968301    -1.5658160
C          -0.0155103    -0.3188970    -2.6168019
H          -0.4355678    -0.6501500    -3.5716578
H           1.0374125    -0.0650001    -2.7909821
H          -0.5352929     0.6055548    -2.3335437
C          -0.5040488    -2.6954071    -1.9595612
H          -0.6628663    -2.8982602    -3.0164556
C           5.3784031    -0.8699614    -0.5468593
H           6.3640024    -1.3168035    -0.6382524
C           4.9922936     0.1782951    -1.3852937
H           5.6791407     0.5567958    -2.1383750
C           3.7267775     0.7466310    -1.2730834
H           3.4403716     1.5659956    -1.9306132
C           2.8096489     0.2835567    -0.3094929
C           3.2056306    -0.7684488     0.5360859
H           2.5242739    -1.1446264     1.2906793
C           4.4740058    -1.3329767     0.4098600
H           4.7552905    -2.1472298     1.0732233
30
384_C14H15N_11-0-3-25 (-30,) energy =    -597.2715732
C           0.2886442     0.3108359     0.3286119
H           0.2042892     0.2920660     1.4241803
H          -0.5076718     0.9801792    -0.0186703
N           1.5535893     0.9682410    -0.0405963
H           1.4093541     1.6985080    -0.7261326
C          -0.5398812    -3.7295669    -0.9923252
H          -0.7601292    -4.7417806    -1.3210380
C          -0.4614953    -3.4297709     0.3658709
H          -0.6195249    -4.2031800     1.1126425
C          -0.1769963    -2.1228348     0.7612107
H          -0.1183408    -1.8837569     1.8214029
C           0.0352786    -1.1037622    -0.1739567
C          -0.0550526    -1.4036993    -1.5504369
C           0.1486887    -0.3466329    -2.6117624
H          -0.1869924    -0.7079002    -3.5888381
H           1.2064303    -0.0717933    -2.7054097
H          -0.4107330     0.5714593    -2.3904746
C          -0.3404622    -2.7193708    -1.9338664
H          -0.4128727    -2.9531797    -2.9937696
C           5.2639518    -0.9406579    -0.6975971
H           6.2262862    -1.4168219    -0.8609410
C           4.8905344     0.1800045    -1.4418175
H           5.5631955     0.5861785    -2.1932640
C           3.6525857     0.7849560    -1.2393120
H           3.3733487     1.6581316    -1.8271561
C           2.7552417     0.2894275    -0.2736838
C           3.1432515    -0.8318525     0.4823640
H           2.4802043    -1.2253016     1.2442938
C           4.3790882    -1.4367896     0.2616535
H           4.6536528    -2.3050226     0.8557396
30
384_C14H15N_11-0-3-25 (-15,) energy =    -597.2689843
C           0.2324158     0.3521626     0.3029111
H          -0.0028555     0.3919551     1.3758830
H          -0.4983362     1.0073994    -0.1879396
N           1.5572439     0.9679396     0.0807500
H           1.4766369     1.8247996    -0.4515059
C          -0.5052759    -3.7349917    -0.9093467
H          -0.7039392    -4.7595546    -1.2126610
C          -0.5132956    -3.3840466     0.4389579
H          -0.7189482    -4.1290108     1.2028204
C          -0.2560412    -2.0620961     0.8017462
H          -0.2647011    -1.7819113     1.8532515
C           0.0156330    -1.0793078    -0.1570077
C           0.0112235    -1.4302644    -1.5246207
C           0.2747725    -0.4105451    -2.6083174
H           0.0239294    -0.8168529    -3.5930480
H           1.3293959    -0.1111771    -2.6294454
H          -0.3199245     0.5010161    -2.4659234
C          -0.2486837    -2.7605663    -1.8744272
H          -0.2550858    -3.0345795    -2.9270457
C           5.2125964    -0.9388684    -0.8472207
H           6.1618634    -1.4135705    -1.0777034
C           4.8606532     0.2731082    -1.4436844
H           5.5364538     0.7529902    -2.1473759
C           3.6381279     0.8754730    -1.1561428
H           3.3735081     1.8174123    -1.6345123
C           2.7363432     0.2884200    -0.2464895
C           3.1067038    -0.9239345     0.3653685
H           2.4454982    -1.3871555     1.0879972
C           4.3238543    -1.5271481     0.0548760
H           4.5831656    -2.4661846     0.5377658
30
384_C14H15N_11-0-3-25 (0,) energy =    -597.2669457
C           0.2062789     0.3841837     0.2535620
H          -0.1634445     0.4972611     1.2819247
H          -0.4328267     1.0246527    -0.3702352
N           1.5782980     0.9356469     0.1852733
H           1.5621606     1.8850414    -0.1654505
C          -0.5067925    -3.7425269    -0.8188175
H          -0.6973941    -4.7779965    -1.0884663
C          -0.5738774    -3.3359287     0.5122843
H          -0.8191153    -4.0475723     1.2959440
C          -0.3266778    -2.0008399     0.8311306
H          -0.3806909    -1.6766551     1.8683172
C          -0.0050935    -1.0602624    -0.1548191
C           0.0492232    -1.4669261    -1.5060191
C           0.3645612    -0.4938540    -2.6181337
H           0.1917876    -0.9530992    -3.5962545
H           1.4100052    -0.1661448    -2.5816998
H          -0.2598437     0.4071625    -2.5611202
C          -0.2025333    -2.8099986    -1.8109110
H          -0.1631185    -3.1279099    -2.8502971
C           5.2023316    -0.9150824    -0.9618375
H           6.1447827    -1.3745754    -1.2451962
C           4.8823446     0.3740730    -1.3906201
H           5.5759134     0.9304729    -2.0164231
C           3.6678127     0.9569367    -1.0364562
H           3.4256735     1.9583951    -1.3893422
C           2.7430094     0.2736561    -0.2209263
C           3.0835164    -1.0179238     0.2254276
H           2.4091494    -1.5573929     0.8789550
C           4.2907318    -1.6001857    -0.1558632
H           4.5258126    -2.6006018     0.1994061
30
384_C14H15N_11-0-3-25 (15,) energy =    -597.2665784
C           1.0383827    -1.5142882     1.1836851
H           0.8919079    -2.4818188     1.6798099
H           0.4864924    -0.7846312     1.7862363
N           2.4837914    -1.2115426     1.2782180
H           2.9744348    -1.9375787     1.7843658
C          -0.6938499    -1.8592083    -2.7681352
H          -1.1334197    -1.9559502    -3.7573690
C           0.3825601    -2.6623602    -2.3917129
H           0.7945061    -3.3933971    -3.0820831
C           0.9274701    -2.5191241    -1.1186711
H           1.7716143    -3.1381889    -0.8240791
C           0.4240823    -1.5827102    -0.2058501
C          -0.6648762    -0.7698152    -0.5823258
C          -1.2705794     0.2624562     0.3468571
H          -2.0533493     0.8278158    -0.1680139
H          -0.5267795     0.9841311     0.7065642
H          -1.7281149    -0.1944676     1.2332306
C          -1.2050219    -0.9274602    -1.8670836
H          -2.0440976    -0.3016723    -2.1627013
C           5.0103940     0.4143126    -1.6927524
H           5.6718095     0.8406378    -2.4413572
C           5.4532010    -0.6093181    -0.8532214
H           6.4673921    -0.9906408    -0.9441582
C           4.6009542    -1.1638223     0.0985369
H           4.9560884    -1.9704415     0.7382577
C           3.2821489    -0.6953831     0.2499853
C           2.8479277     0.3477612    -0.5887525
H           1.8437081     0.7426432    -0.4820238
C           3.7023036     0.8820245    -1.5507125
H           3.3399397     1.6833692    -2.1900558
30
384_C14H15N_11-0-3-25 (30,) energy =    -597.2695398
C           1.0504782    -1.3580272     1.1634541
H           0.7623319    -2.2104837     1.7907137
H           0.6219407    -0.4765528     1.6540197
N           2.5171671    -1.2693858     1.2461872
H           2.9249591    -2.1109927     1.6332086
C          -0.7335033    -1.9155792    -2.7471428
H          -1.1872927    -2.0627075    -3.7236628
C           0.4032536    -2.6345883    -2.3795065
H           0.8490683    -3.3504454    -3.0648010
C           0.9679653    -2.4260073    -1.1235883
H           1.8605656    -2.9775217    -0.8400855
C           0.4236470    -1.5057433    -0.2189070
C          -0.7297098    -0.7806952    -0.5846814
C          -1.3888826     0.2202519     0.3422145
H          -2.2499993     0.6854206    -0.1471876
H          -0.7051711     1.0266155     0.6367977
H          -1.7509206    -0.2453867     1.2672839
C          -1.2871541    -1.0022927    -1.8521198
H          -2.1747177    -0.4425401    -2.1386659
C           5.0907318     0.4306323    -1.6389762
H           5.7636643     0.8738531    -2.3671393
C           5.4942661    -0.6648590    -0.8728739
H           6.4893603    -1.0839639    -1.0006145
C           4.6287338    -1.2396617     0.0540705
H           4.9550743    -2.0967274     0.6412721
C           3.3334918    -0.7245673     0.2477792
C           2.9359871     0.3853438    -0.5194761
H           1.9463884     0.8089276    -0.3843551
C           3.8064121     0.9453383    -1.4524325
H           3.4735351     1.7994318    -2.0371092
30
384_C14H15N_11-0-3-25 (45,) energy =    -597.2728660
C           1.0966814    -1.1875819     1.0740020
H           0.6917542    -1.8736401     1.8287293
H           0.8200892    -0.1839281     1.4211626
N           2.5509075    -1.3073476     1.1533771
H           2.8536626    -2.2210214     1.4669129
C          -0.8548052    -2.0020236    -2.7134917
H          -1.3538522    -2.2087990    -3.6565359
C           0.3742204    -2.5896593    -2.4205439
H           0.8482583    -3.2612552    -3.1313095
C           0.9995497    -2.3080890    -1.2064053
H           1.9623536    -2.7587861    -0.9853859
C           0.4215348    -1.4410438    -0.2731944
C          -0.8280528    -0.8513793    -0.5619823
C          -1.5207699     0.0750175     0.4148693
H          -2.4898468     0.3958132     0.0208233
H          -0.9327063     0.9803907     0.6153421
H          -1.7027579    -0.4059051     1.3842722
C          -1.4439362    -1.1439325    -1.7855509
H          -2.4057193    -0.6882565    -2.0108732
C           5.2856615     0.3796670    -1.5851330
H           6.0001497     0.8176370    -2.2758375
C           5.6209718    -0.7527686    -0.8390318
H           6.6042828    -1.2045316    -0.9445022
C           4.7046448    -1.3191712     0.0422534
H           4.9795278    -2.1998034     0.6206175
C           3.4219925    -0.7621527     0.2037382
C           3.0897887     0.3794160    -0.5472708
H           2.1072402     0.8281775    -0.4460184
C           4.0152031     0.9357083    -1.4291026
H           3.7333167     1.8159089    -2.0017209
30
384_C14H15N_11-0-3-25 (60,) energy =    -597.2752686
C           1.1152934    -1.0422880     0.9464042
H           0.6501639    -1.5704344     1.7890900
H           0.9687997     0.0238478     1.1647617
N           2.5388956    -1.3224057     1.0212491
H           2.7596626    -2.2723499     1.2908129
C          -1.0213293    -2.0932027    -2.6797142
H          -1.5689652    -2.3562079    -3.5808482
C           0.2718339    -2.5681166    -2.4744687
H           0.7482844    -3.2061575    -3.2139949
C           0.9602809    -2.2179955    -1.3119102
H           1.9714417    -2.5818474    -1.1599600
C           0.3777943    -1.3928493    -0.3461125
C          -0.9353595    -0.9136559    -0.5473081
C          -1.6194374    -0.0326975     0.4747371
H          -2.6380531     0.2111139     0.1582536
H          -1.0859641     0.9152103     0.6258147
H          -1.6859258    -0.5166862     1.4578962
C          -1.6130339    -1.2741906    -1.7174600
H          -2.6243191    -0.9049281    -1.8740973
C           5.4819960     0.3872878    -1.4752263
H           6.2499877     0.8288395    -2.1033343
C           5.7452440    -0.7695783    -0.7368028
H           6.7259596    -1.2364599    -0.7852099
C           4.7622498    -1.3381589     0.0666588
H           4.9829407    -2.2340767     0.6444719
C           3.4798151    -0.7618992     0.1536906
C           3.2173298     0.3991323    -0.5952802
H           2.2345883     0.8571965    -0.5641683
C           4.2129200     0.9608359    -1.3943789
H           3.9845149     1.8572652    -1.9656987
30
384_C14H15N_11-0-3-25 (75,) energy =    -597.2760690
C           1.1323000    -0.9342708     0.7997431
H           0.6565987    -1.3310994     1.7067884
H           1.0857680     0.1570149     0.9114330
N           2.5225781    -1.3320614     0.8474611
H           2.6964892    -2.2835923     1.1390209
C          -1.2111423    -2.1766605    -2.6315300
H          -1.8094544    -2.4863130    -3.4843314
C           0.1225299    -2.5637410    -2.5262496
H           0.5804375    -3.1779070    -3.2971171
C           0.8761937    -2.1564337    -1.4236989
H           1.9177320    -2.4516705    -1.3463046
C           0.3164088    -1.3622529    -0.4201233
C          -1.0356229    -0.9671388    -0.5221484
C          -1.6850834    -0.1114434     0.5422553
H          -2.7352131     0.0802382     0.3022662
H          -1.1875473     0.8617784     0.6482947
H          -1.6538393    -0.5892174     1.5305294
C          -1.7780333    -1.3844134    -1.6319878
H          -2.8199483    -1.0816299    -1.7118435
C           5.6830992     0.4183398    -1.3294101
H           6.5061408     0.8684135    -1.8764225
C           5.8766844    -0.7481733    -0.5839929
H           6.8582416    -1.2142688    -0.5451662
C           4.8246468    -1.3258009     0.1181603
H           4.9919450    -2.2271699     0.7051606
C           3.5376188    -0.7507283     0.0930700
C           3.3438720     0.4161856    -0.6691655
H           2.3602576     0.8682751    -0.7376418
C           4.4106508     0.9883648    -1.3623927
H           4.2342935     1.8896357    -1.9445076
30
384_C14H15N_11-0-3-25 (90,) energy =    -597.2766186
C           1.2501917    -1.1524453     0.6720955
H           0.8297543    -1.6073578     1.5788753
H           1.2523651    -0.0666979     0.8578998
N           2.6157099    -1.6377706     0.5407252
H           2.9325786    -2.2077857     1.3120462
C          -1.3722798    -2.0730542    -2.6503916
H          -2.0388046    -2.3014953    -3.4779400
C          -0.0913056    -2.6187327    -2.6034958
H           0.2549616    -3.2787372    -3.3945739
C           0.7518270    -2.3141755    -1.5336101
H           1.7520156    -2.7325140    -1.4846081
C           0.3331789    -1.4654114    -0.5060807
C          -0.9646110    -0.9108473    -0.5464856
C          -1.4650087     0.0023541     0.5503090
H          -2.4952180     0.3162554     0.3569362
H          -0.8544987     0.9105463     0.6413652
H          -1.4481872    -0.4875900     1.5330310
C          -1.7981162    -1.2277357    -1.6248253
H          -2.7989189    -0.8023907    -1.6587102
C           5.7153229     0.6205652    -1.2178511
H           6.5185134     1.1941940    -1.6708447
C           5.9991851    -0.4247196    -0.3342300
H           7.0304033    -0.6690351    -0.0912945
C           4.9724390    -1.1592857     0.2492779
H           5.2065015    -1.9682855     0.9392152
C           3.6248497    -0.8680177    -0.0396119
C           3.3423694     0.1800157    -0.9343529
H           2.3151726     0.4076387    -1.1985526
C           4.3827054     0.9107833    -1.5093334
H           4.1404150     1.7156778    -2.1989796
30
384_C14H15N_11-0-3-25 (105,) energy =    -597.2761499
C           1.2712423    -1.0385810     0.4998817
H           0.8839629    -1.3532470     1.4790923
H           1.3364600     0.0577394     0.5518833
N           2.6094499    -1.5970318     0.3473632
H           2.8659888    -2.2489806     1.0759138
C          -1.5755828    -2.2035286    -2.5492074
H          -2.2978070    -2.4910482    -3.3088338
C          -0.2644442    -2.6704056    -2.6075997
H           0.0500231    -3.3270032    -3.4146922
C           0.6500018    -2.2916164    -1.6228708
H           1.6740921    -2.6498187    -1.6532036
C           0.2717747    -1.4474192    -0.5766466
C          -1.0551302    -0.9692250    -0.5125431
C          -1.5059941    -0.0548822     0.6041872
H          -2.5596954     0.2156813     0.4869488
H          -0.9263060     0.8772902     0.6327890
H          -1.3937071    -0.5246010     1.5907912
C          -1.9596928    -1.3597660    -1.5056569
H          -2.9832314    -0.9939047    -1.4584287
C           5.8914235     0.6621004    -1.0428924
H           6.7399853     1.2364282    -1.4026378
C           6.0793494    -0.4110291    -0.1678698
H           7.0805090    -0.6764110     0.1628022
C           4.9935317    -1.1450188     0.2995477
H           5.1531508    -1.9725255     0.9887522
C           3.6831430    -0.8264026    -0.1045133
C           3.4986336     0.2455938    -0.9968937
H           2.5032475     0.4862989    -1.3569757
C           4.5950239     0.9787725    -1.4501243
H           4.4282370     1.8029997    -2.1392934
30
384_C14H15N_11-0-3-25 (120,) energy =    -597.2752678
C           1.2828904    -0.9388387     0.3029336
H           0.9520515    -1.1272355     1.3355096
H           1.3676487     0.1522595     0.2264828
N           2.6051271    -1.5256042     0.1188496
H           2.8028143    -2.2845947     0.7575094
C          -1.7569284    -2.3712117    -2.4289131
H          -2.5270112    -2.7251789    -3.1093423
C          -0.4352896    -2.7843585    -2.5807656
H          -0.1602758    -3.4641652    -3.3830760
C           0.5407830    -2.3207699    -1.6966589
H           1.5748963    -2.6333685    -1.8019730
C           0.2141133    -1.4459003    -0.6583359
C          -1.1230480    -1.0210266    -0.5007255
C          -1.5184564    -0.0695551     0.6059722
H          -2.5889222     0.1534903     0.5661853
H          -0.9792498     0.8848486     0.5404366
H          -1.3041905    -0.4831943     1.6007173
C          -2.0894169    -1.4953591    -1.3941294
H          -3.1207958    -1.1701122    -1.2750125
C           6.0550071     0.7073717    -0.8479586
H           6.9468102     1.2734252    -1.1000135
C           6.1403530    -0.4338638    -0.0469939
H           7.1041899    -0.7619836     0.3343752
C           4.9978516    -1.1565783     0.2844132
H           5.0770647    -2.0362986     0.9208337
C           3.7326928    -0.7601702    -0.1885695
C           3.6538558     0.3797588    -1.0100536
H           2.6983752     0.6820503    -1.4278855
C           4.8038479     1.1029160    -1.3234097
H           4.7169662     1.9803139    -1.9596348
30
384_C14H15N_11-0-3-25 (135,) energy =    -597.2759943
C           1.2658280    -1.4527875     0.5779660
H           1.2918965    -2.0180037     1.5203486
H           1.0627323    -0.4077955     0.8425314
N           2.5628521    -1.5220897    -0.0991738
H           2.5571840    -2.0875393    -0.9374238
C          -1.8673902    -3.0839705    -1.9118820
H          -2.6504324    -3.4962719    -2.5428189
C          -1.3382189    -3.8343719    -0.8642944
H          -1.7012523    -4.8391413    -0.6659779
C          -0.3347446    -3.2817731    -0.0672067
H           0.0813701    -3.8605356     0.7546114
C           0.1518577    -1.9903804    -0.2990528
C          -0.3831469    -1.2261397    -1.3604099
C           0.0972667     0.1788743    -1.6459363
H          -0.4271299     0.6020253    -2.5079195
H           1.1724455     0.2127119    -1.8544051
H          -0.0770078     0.8470923    -0.7925946
C          -1.3902284    -1.7935965    -2.1495049
H          -1.8104520    -1.2090002    -2.9648052
C           5.4324961     1.5688751    -0.1495517
H           6.1777605     2.3584950    -0.1663167
C           5.3849632     0.6128042    -1.1684422
H           6.0959137     0.6559311    -1.9900020
C           4.4285271    -0.3964651    -1.1533417
H           4.3991947    -1.1302951    -1.9568394
C           3.4874737    -0.4845752    -0.1061718
C           3.5495595     0.4720384     0.9256884
H           2.8661291     0.4112155     1.7667516
C           4.5082086     1.4848538     0.8915868
H           4.5339491     2.2111365     1.7004577
30
384_C14H15N_11-0-3-25 (150,) energy =    -597.2765981
C           1.2223594    -1.2889110     0.4169756
H           1.3080713    -1.7804848     1.3963844
H           0.9822339    -0.2343175     0.6144464
N           2.4924141    -1.3741731    -0.3042170
H           2.4313832    -1.8210354    -1.2087172
C          -1.9161067    -3.2187256    -1.8378716
H          -2.7010684    -3.7056962    -2.4105027
C          -1.2872996    -3.8906405    -0.7915570
H          -1.5738113    -4.9073779    -0.5370611
C          -0.2827481    -3.2446081    -0.0702940
H           0.2131049    -3.7620206     0.7479465
C           0.1050199    -1.9353058    -0.3758884
C          -0.5297932    -1.2512238    -1.4360565
C          -0.1607207     0.1715163    -1.7939575
H          -0.6797013     0.4921675    -2.7021999
H           0.9156971     0.2897949    -1.9601571
H          -0.4350618     0.8714661    -0.9936627
C          -1.5358254    -1.9125997    -2.1503574
H          -2.0316908    -1.3905590    -2.9656092
C           5.6013610     1.4508702     0.0488480
H           6.4081703     2.1724553     0.1361614
C           5.5175505     0.6081955    -1.0640442
H           6.2624721     0.6727156    -1.8534926
C           4.4844041    -0.3143662    -1.1819682
H           4.4294401    -0.9621830    -2.0550169
C           3.4984553    -0.4249882    -0.1794010
C           3.5919686     0.4190706     0.9437943
H           2.8646629     0.3404553     1.7455128
C           4.6318034     1.3439839     1.0453673
H           4.6818220     1.9844055     1.9227541
30
384_C14H15N_11-0-3-25 (165,) energy =    -597.2775485
C           1.2572918    -1.2741579     0.3041911
H           1.4908038    -1.8523541     1.2142890
H           0.9549961    -0.2748867     0.6380022
N           2.4160039    -1.1210055    -0.5629764
H           2.6136957    -1.9207737    -1.1492606
C          -1.9792271    -3.2290045    -1.7869940
H          -2.7905493    -3.7217772    -2.3163697
C          -1.2484485    -3.9169875    -0.8212587
H          -1.4802927    -4.9520423    -0.5854264
C          -0.2115772    -3.2615257    -0.1551611
H           0.3615708    -3.7917748     0.6027571
C           0.1083809    -1.9292238    -0.4371698
C          -0.6320741    -1.2276805    -1.4142621
C          -0.3350603     0.2171710    -1.7426097
H          -0.9689622     0.5706281    -2.5614534
H           0.7126312     0.3551998    -2.0290031
H          -0.5174947     0.8714623    -0.8794344
C          -1.6682691    -1.8983038    -2.0736924
H          -2.2440718    -1.3638683    -2.8259865
C           5.7291411     1.3826555     0.1760769
H           6.5832892     2.0303049     0.3498609
C           5.7248367     0.4809311    -0.8931233
H           6.5811603     0.4226971    -1.5606357
C           4.6325583    -0.3474136    -1.1198794
H           4.6370667    -1.0372118    -1.9617834
C           3.5019248    -0.3014440    -0.2769801
C           3.5175849     0.5963585     0.8069568
H           2.6795232     0.6426504     1.4940990
C           4.6185021     1.4286463     1.0169397
H           4.6040176     2.1143277     1.8607955
30
384_C14H15N_11-0-3-25 (180,) energy =    -597.2784385
C           1.2208953    -1.0765574     0.1929200
H           1.5236333    -1.6033367     1.1135699
H           0.8636946    -0.0864713     0.5016596
N           2.3455716    -0.8873538    -0.7191566
H           2.5117656    -1.6857379    -1.3194359
C          -1.9205543    -3.3325341    -1.7305093
H          -2.7076981    -3.9009316    -2.2190415
C          -1.1029182    -3.9366076    -0.7780440
H          -1.2427224    -4.9808227    -0.5120929
C          -0.0988310    -3.1855155    -0.1651443
H           0.5419485    -3.6500501     0.5815718
C           0.1020341    -1.8387489    -0.4867929
C          -0.7258397    -1.2225895    -1.4507938
C          -0.5581118     0.2341530    -1.8178654
H          -1.1953433     0.4997212    -2.6668644
H           0.4805443     0.4636284    -2.0764263
H          -0.8340265     0.8919384    -0.9823459
C          -1.7273736    -1.9890950    -2.0574509
H          -2.3691705    -1.5209524    -2.8004317
C           5.8670779     1.1877041     0.3326760
H           6.7747979     1.7261670     0.5885243
C           5.8176292     0.3769485    -0.8059737
H           6.6920710     0.2803427    -1.4448598
C           4.6571625    -0.3125408    -1.1365807
H           4.6273401    -0.9336480    -2.0298124
C           3.5037615    -0.2127308    -0.3317685
C           3.5610160     0.5957418     0.8179632
H           2.6976583     0.6863605     1.4683334
C           4.7314592     1.2880822     1.1344075
H           4.7501566     1.9077813     2.0277010
