30
384_C14H15N_0-3-25-26 (-165,) energy =    -597.2769596
C           1.0269202    -0.4573416     0.2845113
H           0.8505124    -0.0848819     1.3027203
H           1.0026684     0.4217188    -0.3785044
N           2.3326875    -1.1093974     0.2310369
H           2.3557724    -1.9709031    -0.2970678
C          -2.0663008    -3.3038271    -0.7061604
H          -2.8397829    -4.0251194    -0.9564883
C          -1.7016012    -3.0947190     0.6229309
H          -2.1852746    -3.6500828     1.4218239
C          -0.7072319    -2.1632157     0.9202886
H          -0.4148973    -1.9953750     1.9543123
C          -0.0701026    -1.4324523    -0.0890160
C          -0.4341354    -1.6438040    -1.4361478
C           0.2151778    -0.8723979    -2.5650284
H          -0.0958262    -1.2686400    -3.5362914
H           1.3092601    -0.9156701    -2.5198793
H          -0.0612215     0.1897808    -2.5395961
C          -1.4342001    -2.5825667    -1.7193951
H          -1.7221591    -2.7481225    -2.7551094
C           5.9902842     0.9792809     0.3882695
H           6.9374291     1.5085551     0.4339350
C           4.8035767     1.6122106     0.7551362
H           4.8209232     2.6461043     1.0916250
C           3.5805799     0.9420272     0.6980712
H           2.6736048     1.4577824     0.9960232
C           3.5243419    -0.3972778     0.2681484
C           4.7284766    -1.0322415    -0.1013475
H           4.7023162    -2.0683904    -0.4337496
C           5.9383437    -0.3512795    -0.0401233
H           6.8508359    -0.8652904    -0.3324460
30
384_C14H15N_0-3-25-26 (-150,) energy =    -597.2764252
C           1.0122863    -0.4562174     0.3644343
H           0.7705183    -0.0472939     1.3540660
H           1.0589511     0.3994078    -0.3261010
N           2.3111224    -1.1380987     0.4266244
H           2.3287339    -1.9972263    -0.1091344
C          -2.0658070    -3.2734188    -0.7489433
H          -2.8357443    -3.9872444    -1.0297923
C          -1.7808974    -3.0366216     0.5949333
H          -2.3242175    -3.5630302     1.3748732
C          -0.7900215    -2.1148311     0.9316558
H          -0.5601032    -1.9246779     1.9775010
C          -0.0770419    -1.4214478    -0.0531117
C          -0.3594143    -1.6621508    -1.4149866
C           0.3746960    -0.9324376    -2.5194429
H           0.1160887    -1.3474700    -3.4982085
H           1.4629792    -0.9953101    -2.4063440
H           0.1198014     0.1352376    -2.5372926
C          -1.3577103    -2.5899400    -1.7378449
H          -1.5833625    -2.7770814    -2.7852738
C           5.9449165     0.9995170     0.2492518
H           6.8840045     1.5433687     0.2076703
C           4.8044593     1.5918431     0.7914674
H           4.8512836     2.6068517     1.1786318
C           3.5935897     0.9013954     0.8490824
H           2.7229962     1.3795119     1.2869097
C           3.5018533    -0.4146239     0.3596356
C           4.6539984    -1.0024436    -0.1991625
H           4.5966972    -2.0160213    -0.5920534
C           5.8570671    -0.3058710    -0.2434548
H           6.7315984    -0.7845264    -0.6773810
30
384_C14H15N_0-3-25-26 (-135,) energy =    -597.2752729
C           1.4403467    -0.6542950    -0.4726697
H           1.1335019     0.3562180    -0.1741503
H           1.8394397    -0.5571193    -1.4955653
N           2.4727087    -1.1153667     0.4571053
H           2.6838264    -2.0943676     0.2865303
C          -2.0500625    -3.2138467    -0.4482198
H          -2.9293396    -3.8526117    -0.4496266
C          -1.1699035    -3.2246106     0.6311086
H          -1.3553334    -3.8683971     1.4868932
C          -0.0449996    -2.3984902     0.6140777
H           0.6366042    -2.3902528     1.4589153
C           0.2206419    -1.5594885    -0.4739690
C          -0.6751823    -1.5368058    -1.5655597
C          -0.4507727    -0.6310364    -2.7560645
H          -1.2754934    -0.7170554    -3.4699774
H           0.4760092    -0.8761652    -3.2914001
H          -0.3768109     0.4238437    -2.4624289
C          -1.7986996    -2.3703853    -1.5310265
H          -2.4886965    -2.3559347    -2.3718650
C           6.0495454     1.0816455     0.9804631
H           6.9688319     1.6413537     1.1258281
C           4.8179122     1.7386167     0.9487176
H           4.7738286     2.8176595     1.0741967
C           3.6320547     1.0299091     0.7654593
H           2.6855386     1.5614953     0.7655040
C           3.6549290    -0.3668069     0.6038148
C           4.9003615    -1.0194004     0.6215666
H           4.9366919    -2.0984774     0.4824368
C           6.0795061    -0.3047877     0.8197734
H           7.0277587    -0.8363429     0.8344633
30
384_C14H15N_0-3-25-26 (-120,) energy =    -597.2743030
C           1.5270508    -0.7705558    -0.5329323
H           1.2930525     0.2862319    -0.3527426
H           1.9566176    -0.8102191    -1.5480038
N           2.5074286    -1.1923587     0.4746183
H           2.7612617    -2.1635179     0.3103072
C          -2.1296511    -3.0793832    -0.3609394
H          -3.0505864    -3.6554772    -0.3255602
C          -1.2532064    -3.0798468     0.7215803
H          -1.4828172    -3.6533780     1.6158383
C          -0.0744031    -2.3351230     0.6572918
H           0.6096285    -2.3193933     1.4998671
C           0.2478862    -1.5882396    -0.4808098
C          -0.6417731    -1.5775186    -1.5775823
C          -0.3525084    -0.7694203    -2.8229922
H          -1.1768924    -0.8489052    -3.5381122
H           0.5596447    -1.1085310    -3.3316788
H          -0.2111320     0.2956553    -2.5986019
C          -1.8197480    -2.3283540    -1.4955175
H          -2.5059779    -2.3222462    -2.3396134
C           5.9895663     1.1556168     1.0034644
H           6.8821824     1.7569770     1.1498528
C           4.7218128     1.7120509     1.1944727
H           4.6253568     2.7514346     1.4981072
C           3.5734216     0.9440355     1.0186020
H           2.5948563     1.3776934     1.2043920
C           3.6705530    -0.4030485     0.6299779
C           4.9461569    -0.9512397     0.4237346
H           5.0362038    -1.9890835     0.1080839
C           6.0930370    -0.1829108     0.6245163
H           7.0704448    -0.6321385     0.4674418
30
384_C14H15N_0-3-25-26 (-105,) energy =    -597.2730187
C           1.5461737    -0.8074351    -0.5060509
H           1.3388430     0.2644111    -0.3865504
H           2.0179186    -0.9084778    -1.4981864
N           2.4719160    -1.1995133     0.5678505
H           2.7241977    -2.1771696     0.4348271
C          -2.1763396    -3.0111382    -0.3796015
H          -3.1134940    -3.5611284    -0.3557767
C          -1.3415638    -2.9870979     0.7351768
H          -1.6204510    -3.5154012     1.6432180
C          -0.1412999    -2.2762855     0.6853658
H           0.5116092    -2.2412074     1.5516352
C           0.2439479    -1.5880145    -0.4699473
C          -0.6029011    -1.6024720    -1.6001290
C          -0.2440385    -0.8574081    -2.8665241
H          -1.0422435    -0.9465476    -3.6097064
H           0.6772651    -1.2420558    -3.3237658
H          -0.0816559     0.2123398    -2.6821773
C          -1.8032986    -2.3183808    -1.5321407
H          -2.4567370    -2.3313914    -2.4018301
C           5.9600947     1.1764013     0.9254729
H           6.8514037     1.7892607     1.0262623
C           4.7170137     1.6661292     1.3366463
H           4.6400385     2.6624507     1.7645115
C           3.5740176     0.8781266     1.2230325
H           2.6129588     1.2444932     1.5735800
C           3.6521495    -0.4132870     0.6788255
C           4.8979750    -0.8906331     0.2476164
H           4.9668189    -1.8841769    -0.1914772
C           6.0454472    -0.1080570     0.3880037
H           7.0050052    -0.5002791     0.0607034
30
384_C14H15N_0-3-25-26 (-90,) energy =    -597.2724542
C           1.4374250    -1.2982426    -0.0117926
H           1.9999649    -2.0260132     0.5964520
H           1.1080757    -0.5078858     0.6731876
N           2.2976731    -0.6586383    -1.0364661
H           2.5562170    -1.3799656    -1.7085144
C          -1.8902936    -3.3473085    -1.8535237
H          -2.7247183    -3.8625480    -2.3222510
C          -0.8370679    -4.0708075    -1.2993131
H          -0.8373470    -5.1571266    -1.3277215
C           0.2228888    -3.3852005    -0.7035405
H           1.0468692    -3.9453032    -0.2655267
C           0.2501125    -1.9873610    -0.6494587
C          -0.8177127    -1.2514540    -1.2093928
C          -0.8389812     0.2586827    -1.1647913
H          -1.6909669     0.6559588    -1.7251354
H           0.0832692     0.6752493    -1.5818344
H          -0.9222784     0.6281180    -0.1333669
C          -1.8728494    -1.9519667    -1.8041466
H          -2.6981583    -1.3904429    -2.2364066
C           5.8086008     1.2043356     0.4442119
H           6.7059819     1.6939481     0.8123572
C           5.8562348    -0.1244050     0.0206127
H           6.7923373    -0.6757302     0.0580999
C           4.7013652    -0.7544400    -0.4465561
H           4.7397764    -1.7935996    -0.7679209
C           3.4867016    -0.0579106    -0.5118810
C           3.4522643     1.2836487    -0.1078258
H           2.5178707     1.8313034    -0.1931485
C           4.6007644     1.9042140     0.3811294
H           4.5583731     2.9446502     0.6929934
30
384_C14H15N_0-3-25-26 (-75,) energy =    -597.2741900
C           1.3936705    -1.2860271     0.0312834
H           1.9100933    -1.9909258     0.7033986
H           1.0542433    -0.4511453     0.6548586
N           2.3141042    -0.7329955    -0.9885767
H           2.5726061    -1.4879590    -1.6209087
C          -1.9071796    -3.3539201    -1.8368343
H          -2.7347085    -3.8742775    -2.3120518
C          -0.9012919    -4.0703040    -1.1927257
H          -0.9320923    -5.1559315    -1.1566682
C           0.1510089    -3.3783252    -0.5907610
H           0.9383557    -3.9323938    -0.0833178
C           0.2163761    -1.9810385    -0.6187028
C          -0.8035340    -1.2520441    -1.2696118
C          -0.7829727     0.2581187    -1.3147282
H          -1.5969494     0.6432786    -1.9365839
H           0.1684243     0.6260059    -1.7118549
H          -0.9027258     0.6906812    -0.3117657
C          -1.8512368    -1.9591029    -1.8697127
H          -2.6398545    -1.4031653    -2.3719685
C           5.8007542     1.2208902     0.4150093
H           6.6928581     1.7340713     0.7628252
C           5.8989317    -0.0321358    -0.1901015
H           6.8706590    -0.5031728    -0.3149818
C           4.7515467    -0.6956086    -0.6280402
H           4.8335053    -1.6790535    -1.0871984
C           3.4873697    -0.1059341    -0.4853380
C           3.3990351     1.1670616     0.1002497
H           2.4268406     1.6460238     0.1779449
C           4.5434269     1.8142214     0.5603133
H           4.4559875     2.7979362     1.0146356
30
384_C14H15N_0-3-25-26 (-60,) energy =    -597.2757081
C           1.3372806    -1.2182467     0.0930212
H           1.8076266    -1.8790109     0.8391639
H           0.9666342    -0.3433338     0.6378628
N           2.3166335    -0.7492110    -0.9086781
H           2.5538915    -1.5227297    -1.5247077
C          -1.8790956    -3.3784670    -1.8167377
H          -2.6853722    -3.9221735    -2.3022079
C          -0.9142072    -4.0600596    -1.0788512
H          -0.9563646    -5.1412746    -0.9790262
C           0.1117366    -3.3388553    -0.4658442
H           0.8671094    -3.8653477     0.1142301
C           0.1899051    -1.9462308    -0.5749090
C          -0.7880025    -1.2521160    -1.3211416
C          -0.7527674     0.2527832    -1.4544359
H          -1.5110235     0.6016126    -2.1622060
H           0.2295041     0.5957148    -1.7945937
H          -0.9514279     0.7447647    -0.4921680
C          -1.8093213    -1.9886519    -1.9313516
H          -2.5657056    -1.4600803    -2.5072826
C           5.8307254     1.2218435     0.3876388
H           6.7313941     1.7382127     0.7069521
C           5.9149623     0.0708056    -0.3963256
H           6.8857791    -0.3191517    -0.6918187
C           4.7587024    -0.5983263    -0.7965633
H           4.8362806    -1.5030985    -1.3967669
C           3.4895546    -0.1186358    -0.4349955
C           3.4114813     1.0540018     0.3362755
H           2.4386822     1.4602659     0.5980619
C           4.5708899     1.7046086     0.7514949
H           4.4878017     2.6077120     1.3510051
30
384_C14H15N_0-3-25-26 (-45,) energy =    -597.2770602
C           1.2519425    -1.0818834     0.1191788
H           1.6799103    -1.6692942     0.9472692
H           0.8356590    -0.1698589     0.5616212
N           2.2858241    -0.6944107    -0.8559613
H           2.4727402    -1.4659142    -1.4894005
C          -1.8221597    -3.4287154    -1.8034576
H          -2.5922170    -4.0195551    -2.2926042
C          -0.8900039    -4.0398762    -0.9679474
H          -0.9222470    -5.1121103    -0.7948318
C           0.0899256    -3.2596656    -0.3521931
H           0.8199044    -3.7305361     0.3031232
C           0.1531997    -1.8766582    -0.5546849
C          -0.7912611    -1.2536192    -1.3998981
C          -0.7710696     0.2393016    -1.6355140
H          -1.4864146     0.5227981    -2.4135715
H           0.2251270     0.5805624    -1.9345974
H          -1.0408983     0.7918057    -0.7249598
C          -1.7663050    -2.0493587    -2.0118745
H          -2.4969286    -1.5760741    -2.6640411
C           5.8849298     1.1414686     0.3901171
H           6.8095773     1.6219618     0.6962127
C           5.8928650     0.1431843    -0.5863090
H           6.8289169    -0.1620269    -1.0474341
C           4.7088417    -0.4801341    -0.9721759
H           4.7288117    -1.2621399    -1.7291937
C           3.4795222    -0.1116478    -0.3965893
C           3.4760483     0.9037620     0.5764504
H           2.5402409     1.2223302     1.0251591
C           4.6683345     1.5119776     0.9656950
H           4.6410767     2.2913842     1.7232428
30
384_C14H15N_0-3-25-26 (-30,) energy =    -597.2781805
C           1.2065877    -1.0094407     0.1200353
H           1.5886208    -1.5406055     1.0070138
H           0.7850790    -0.0622637     0.4778791
N           2.2848953    -0.7077848    -0.8285164
H           2.4435089    -1.4788880    -1.4679326
C          -1.8158054    -3.4472951    -1.7700424
H          -2.5726283    -4.0616524    -2.2507586
C          -0.9204837    -4.0134038    -0.8651884
H          -0.9687297    -5.0729682    -0.6292857
C           0.0431821    -3.2043901    -0.2613017
H           0.7447193    -3.6394149     0.4475465
C           0.1260464    -1.8366065    -0.5443148
C          -0.7809839    -1.2591066    -1.4598410
C          -0.7389068     0.2169933    -1.7832745
H          -1.4273873     0.4589550    -2.5986363
H           0.2686582     0.5336857    -2.0714695
H          -1.0305251     0.8251814    -0.9161261
C          -1.7402261    -2.0835672    -2.0589590
H          -2.4423845    -1.6455637    -2.7648120
C           5.8981860     1.1053448     0.3945755
H           6.8283499     1.5783675     0.6953320
C           5.8580658     0.2581884    -0.7165788
H           6.7623816     0.0659572    -1.2887132
C           4.6690356    -0.3525610    -1.1007293
H           4.6502185    -1.0094158    -1.9684920
C           3.4785596    -0.1293946    -0.3818097
C           3.5232062     0.7258593     0.7338334
H           2.6233417     0.9221083     1.3075790
C           4.7229519     1.3302561     1.1108986
H           4.7325652     1.9854757     1.9785541
30
384_C14H15N_0-3-25-26 (-15,) energy =    -597.2784974
C           1.1984939    -1.0284251     0.1469863
H           1.5193237    -1.5351250     1.0728026
H           0.8090103    -0.0471740     0.4460854
N           2.3182692    -0.8165681    -0.7669399
H           2.4759235    -1.5972495    -1.3922599
C          -1.8509056    -3.4249509    -1.7529381
H          -2.6140378    -4.0294220    -2.2361938
C          -1.0077946    -3.9879355    -0.7973984
H          -1.1035340    -5.0351832    -0.5239526
C          -0.0351025    -3.1917547    -0.1910080
H           0.6254933    -3.6241454     0.5576634
C           0.1087924    -1.8400509    -0.5223606
C          -0.7449999    -1.2654269    -1.4893591
C          -0.6373452     0.1943711    -1.8672655
H          -1.2875616     0.4281190    -2.7157575
H           0.3903269     0.4638386    -2.1314945
H          -0.9361361     0.8465552    -1.0353352
C          -1.7144770    -2.0769585    -2.0896116
H          -2.3760564    -1.6411699    -2.8349234
C           5.8635805     1.1750072     0.3620660
H           6.7774422     1.6920235     0.6394285
C           5.8016550     0.4194356    -0.8134920
H           6.6730693     0.3448990    -1.4594295
C           4.6331805    -0.2419737    -1.1718759
H           4.5936366    -0.8199085    -2.0932549
C           3.4842471    -0.1690772    -0.3579025
C           3.5534743     0.5836616     0.8282957
H           2.6922002     0.6536001     1.4841367
C           4.7319768     1.2488700     1.1722043
H           4.7600160     1.8260908     2.0932654
30
384_C14H15N_0-3-25-26 (0,) energy =    -597.2776809
C           1.2002025    -1.0884179     0.1953168
H           1.4490936    -1.5865270     1.1482603
H           0.8548508    -0.0787578     0.4525186
N           2.3630719    -0.9594021    -0.6708524
H           2.5217988    -1.7377919    -1.2959009
C          -1.8900256    -3.3804258    -1.7690639
H          -2.6633389    -3.9583702    -2.2683377
C          -1.1159450    -3.9586497    -0.7655118
H          -1.2762286    -4.9919777    -0.4702013
C          -0.1290169    -3.1958100    -0.1393882
H           0.4777666    -3.6400680     0.6469286
C           0.0978838    -1.8628303    -0.4985210
C          -0.6859320    -1.2728531    -1.5143591
C          -0.4882065     0.1685797    -1.9243885
H          -1.1025716     0.4156984    -2.7954887
H           0.5590526     0.3753076    -2.1676654
H          -0.7707923     0.8574821    -1.1168690
C          -1.6712428    -2.0505649    -2.1332715
H          -2.2797213    -1.6022836    -2.9155118
C           5.8057642     1.2701118     0.3075121
H           6.6945816     1.8459792     0.5478644
C           5.7150859     0.5734261    -0.9023915
H           6.5381765     0.6049171    -1.6121689
C           4.5765042    -0.1582244    -1.2170565
H           4.5102574    -0.6849467    -2.1669577
C           3.4889801    -0.2204703    -0.3212146
C           3.5927835     0.4639464     0.9036970
H           2.7846697     0.4179509     1.6261543
C           4.7366818     1.2081832     1.1994539
H           4.7908658     1.7338575     2.1497964
30
384_C14H15N_0-3-25-26 (15,) energy =    -597.2769572
C           1.2017200    -1.0452021     0.2281083
H           1.3612198    -1.4494578     1.2369778
H           0.8912573     0.0036049     0.3572408
N           2.4502604    -1.1267493    -0.5238047
H           2.3526277    -1.4256740    -1.4842035
C          -1.8434712    -3.3904901    -1.7411864
H          -2.6054022    -3.9823358    -2.2415642
C          -1.0552463    -3.9575450    -0.7409753
H          -1.1931668    -4.9957464    -0.4516397
C          -0.0846120    -3.1784967    -0.1118812
H           0.5362844    -3.6133323     0.6680166
C           0.1119666    -1.8380703    -0.4630661
C          -0.6814554    -1.2614949    -1.4778494
C          -0.5164261     0.1857285    -1.8893712
H          -1.1209723     0.4101362    -2.7732478
H           0.5252417     0.4324738    -2.1240525
H          -0.8325470     0.8711297    -1.0921975
C          -1.6521460    -2.0561494    -2.1007574
H          -2.2695574    -1.6173568    -2.8813292
C           5.8180501     1.2798278     0.2679563
H           6.6927292     1.8915623     0.4679201
C           5.7180236     0.5491903    -0.9207445
H           6.5189815     0.5908418    -1.6549515
C           4.6007475    -0.2347240    -1.1819565
H           4.5362000    -0.8012988    -2.1090879
C           3.5413922    -0.3121206    -0.2537349
C           3.6450665     0.4263891     0.9403008
H           2.8498061     0.3849901     1.6772747
C           4.7744976     1.2077857     1.1894648
H           4.8314640     1.7677660     2.1198944
30
384_C14H15N_0-3-25-26 (30,) energy =    -597.2765604
C           1.2082549    -1.0813454     0.2781979
H           1.2981460    -1.4568756     1.3058241
H           0.9498606    -0.0143424     0.3556388
N           2.4922053    -1.2533565    -0.4118411
H           2.3847126    -1.5403218    -1.3770304
C          -1.8513628    -3.3519065    -1.7546985
H          -2.6164080    -3.9255981    -2.2712314
C          -1.1282028    -3.9232815    -0.7088249
H          -1.3206026    -4.9469829    -0.3995697
C          -0.1525542    -3.1674012    -0.0595835
H           0.4175829    -3.6056448     0.7563126
C           0.1136641    -1.8459016    -0.4360697
C          -0.6132013    -1.2652992    -1.4976522
C          -0.3725181     0.1621447    -1.9402347
H          -0.9360553     0.3870125    -2.8507056
H           0.6859171     0.3600202    -2.1447441
H          -0.6864049     0.8818651    -1.1730537
C          -1.5903394    -2.0365581    -2.1395693
H          -2.1572621    -1.5942900    -2.9556734
C           5.7453055     1.3602476     0.2070442
H           6.5911792     2.0227979     0.3647524
C           5.5913476     0.6817260    -1.0057285
H           6.3202758     0.8152357    -1.8013823
C           4.5067853    -0.1632777    -1.2143145
H           4.3969199    -0.6845963    -2.1635782
C           3.5411509    -0.3578557    -0.2066537
C           3.7051846     0.3203010     1.0152979
H           2.9852263     0.1780094     1.8150243
C           4.7943411     1.1703637     1.2094714
H           4.8977759     1.6852494     2.1616113
30
384_C14H15N_0-3-25-26 (45,) energy =    -597.2754583
C           1.3224304    -0.6479308    -0.1404780
H           1.1395964    -0.2467914     0.8649099
H           1.2694244     0.2150099    -0.8235015
N           2.6530844    -1.2581144    -0.1575432
H           2.7885657    -1.7796063    -1.0187841
C          -1.7886709    -3.5154743    -1.0551081
H          -2.5752850    -4.2290957    -1.2856384
C          -0.5608268    -3.9503469    -0.5618677
H          -0.3769806    -5.0087353    -0.3969377
C           0.4371721    -3.0183667    -0.2736945
H           1.3917514    -3.3493323     0.1236039
C           0.2303294    -1.6489273    -0.4766411
C          -1.0168762    -1.2023554    -0.9657959
C          -1.3069921     0.2668394    -1.1804811
H          -2.3387559     0.4133468    -1.5140597
H          -0.6490528     0.7103706    -1.9393296
H          -1.1708761     0.8519818    -0.2621459
C          -2.0066084    -2.1509396    -1.2479471
H          -2.9671942    -1.8093671    -1.6272413
C           6.1243033     0.9654298     0.7877680
H           7.0233389     1.5217564     1.0362162
C           6.1154004     0.0723909    -0.2855168
H           7.0118810    -0.0716872    -0.8834167
C           4.9598103    -0.6334884    -0.6103633
H           4.9634264    -1.3204736    -1.4548494
C           3.7806905    -0.4730231     0.1396702
C           3.7997115     0.4188342     1.2269396
H           2.9123542     0.5509131     1.8380087
C           4.9576626     1.1304189     1.5363028
H           4.9460136     1.8162195     2.3798733
30
384_C14H15N_0-3-25-26 (60,) energy =    -597.2745062
C           1.3825696    -0.6538119    -0.3204496
H           1.2115821    -0.0952298     0.6083652
H           1.3702498     0.0988819    -1.1262662
N           2.6946927    -1.3035069    -0.2208623
H           2.8839831    -1.8142788    -1.0797645
C          -1.8356708    -3.4947624    -0.8723089
H          -2.6496214    -4.2011718    -1.0127650
C          -0.6010103    -3.9243563    -0.3916276
H          -0.4391199    -4.9710145    -0.1474332
C           0.4328257    -3.0025146    -0.2192923
H           1.3949527    -3.3252751     0.1657452
C           0.2537660    -1.6493925    -0.5260436
C          -0.9989933    -1.2072209    -1.0052393
C          -1.2536477     0.2477737    -1.3307408
H          -2.2921260     0.4009294    -1.6396499
H          -0.6106540     0.6064938    -2.1453853
H          -1.0653792     0.9011271    -0.4691233
C          -2.0246745    -2.1446881    -1.1703668
H          -2.9901334    -1.8064758    -1.5403975
C           6.0861761     0.9726734     0.8879852
H           6.9624086     1.5434412     1.1816253
C           6.0702111     0.2685149    -0.3161527
H           6.9370894     0.2887503    -0.9718130
C           4.9403692    -0.4547270    -0.6979491
H           4.9325737    -0.9887174    -1.6465046
C           3.8061059    -0.5032362     0.1278571
C           3.8372235     0.1901996     1.3503424
H           2.9846779     0.1329428     2.0210524
C           4.9605317     0.9282422     1.7149671
H           4.9622313     1.4595925     2.6634022
30
384_C14H15N_0-3-25-26 (75,) energy =    -597.2731830
C           1.4124078    -0.6954055    -0.3443027
H           1.2350647    -0.0678275     0.5395146
H           1.4491899     0.0013476    -1.1988000
N           2.7028156    -1.3748419    -0.1519129
H           2.9113139    -1.9158397    -0.9891346
C          -1.8739605    -3.4718680    -0.8143926
H          -2.7046437    -4.1623164    -0.9350478
C          -0.6617326    -3.9088202    -0.2856010
H          -0.5344409    -4.9452373     0.0161307
C           0.3941469    -3.0075903    -0.1393035
H           1.3390878    -3.3344948     0.2828457
C           0.2594989    -1.6682931    -0.5200254
C          -0.9703700    -1.2183015    -1.0488064
C          -1.1757291     0.2238591    -1.4557583
H          -2.2037712     0.3907268    -1.7914172
H          -0.5084405     0.5193237    -2.2763083
H          -0.9818629     0.9165793    -0.6267540
C          -2.0187925    -2.1347060    -1.1865718
H          -2.9667983    -1.7903067    -1.5942088
C           6.0371915     1.0315723     0.8566568
H           6.8986781     1.6359966     1.1261394
C           5.9418318     0.4707536    -0.4169063
H           6.7289438     0.6380889    -1.1477602
C           4.8307344    -0.2982999    -0.7674304
H           4.7544749    -0.7217077    -1.7672563
C           3.8058809    -0.5339626     0.1595795
C           3.9216539     0.0106106     1.4486118
H           3.1500580    -0.2051496     2.1826362
C           5.0186674     0.7994638     1.7859335
H           5.0908286     1.2162125     2.7873579
30
384_C14H15N_0-3-25-26 (90,) energy =    -597.2724202
C           1.3084900    -0.7916813     0.3167354
H           1.5307530    -0.9516789     1.3849168
H           1.0833209     0.2750758     0.2009795
N           2.4854941    -1.0844016    -0.5361947
H           2.6580377    -2.0874783    -0.4827995
C          -2.0447659    -3.2906705    -0.7667277
H          -2.8848589    -3.9229672    -1.0422087
C          -1.3502710    -3.5187922     0.4188212
H          -1.6400556    -4.3293668     1.0820636
C          -0.2746206    -2.6928407     0.7493373
H           0.2696301    -2.8641426     1.6761188
C           0.1203861    -1.6398618    -0.0830675
C          -0.5835852    -1.4053607    -1.2850924
C          -0.2031191    -0.2726264    -2.2098341
H          -0.7904713    -0.3051889    -3.1326941
H           0.8600917    -0.3170127    -2.4657470
H          -0.3816307     0.7047249    -1.7405054
C          -1.6587914    -2.2420191    -1.6040243
H          -2.2048830    -2.0658530    -2.5281707
C           5.9569286     1.0741574     0.5941133
H           6.8438151     1.6347606     0.8764233
C           5.0360360     1.6203152    -0.3035968
H           5.2070353     2.6075741    -0.7250757
C           3.9048121     0.8968000    -0.6787404
H           3.1971229     1.3032237    -1.3959128
C           3.6718954    -0.3807083    -0.1523667
C           4.5866528    -0.9126937     0.7673977
H           4.4045971    -1.8970987     1.1944687
C           5.7311410    -0.1972872     1.1235813
H           6.4398283    -0.6299600     1.8251883
30
384_C14H15N_0-3-25-26 (105,) energy =    -597.2740517
C           1.2677191    -0.7377209     0.3224335
H           1.4432976    -0.8359112     1.4064839
H           1.0509220     0.3200927     0.1354783
N           2.4767855    -1.0885548    -0.4573444
H           2.6354444    -2.0893836    -0.3578861
C          -2.0529332    -3.2816525    -0.7564924
H          -2.8848257    -3.9253100    -1.0304875
C          -1.4118709    -3.4424483     0.4695275
H          -1.7356973    -4.2110729     1.1660841
C          -0.3455209    -2.6034075     0.7972474
H           0.1573651    -2.7220636     1.7550740
C           0.0920666    -1.6033590    -0.0779523
C          -0.5574333    -1.4371303    -1.3212611
C          -0.1293792    -0.3625179    -2.2934405
H          -0.6712026    -0.4512917    -3.2401157
H           0.9448238    -0.4212669    -2.4952091
H          -0.3287236     0.6415146    -1.8938407
C          -1.6237855    -2.2863298    -1.6367508
H          -2.1281498    -2.1628713    -2.5925930
C           5.9762499     1.0663951     0.5725810
H           6.8728405     1.6236671     0.8290502
C           4.9433852     1.6810404    -0.1407567
H           5.0372446     2.7201955    -0.4458168
C           3.7982482     0.9658616    -0.4843361
H           3.0095244     1.4351197    -1.0659906
C           3.6585939    -0.3784240    -0.1060018
C           4.6878355    -0.9821182     0.6310135
H           4.5823180    -2.0186663     0.9457627
C           5.8453512    -0.2703255     0.9499686
H           6.6387925    -0.7599698     1.5089599
30
384_C14H15N_0-3-25-26 (120,) energy =    -597.2755069
C           1.2057985    -0.6611407     0.3105354
H           1.3335462    -0.6806959     1.4050566
H           0.9859311     0.3767093     0.0383549
N           2.4470803    -1.0603641    -0.3849291
H           2.5815874    -2.0614421    -0.2671648
C          -2.0443305    -3.3057621    -0.7373772
H          -2.8581549    -3.9752910    -1.0034668
C          -1.4570363    -3.3773792     0.5235480
H          -1.8051965    -4.1012687     1.2553550
C          -0.4126266    -2.5071226     0.8403577
H           0.0490265    -2.5564923     1.8245779
C           0.0547455    -1.5632907    -0.0805684
C          -0.5404639    -1.4865103    -1.3593212
C          -0.0795593    -0.4737591    -2.3817383
H          -0.5829465    -0.6278754    -3.3411066
H           1.0021595    -0.5355322    -2.5377889
H          -0.2998601     0.5524098    -2.0565136
C          -1.5848752    -2.3667460    -1.6630174
H          -2.0478584    -2.3127497    -2.6458336
C           6.0055370     1.0272813     0.5647551
H           6.9203927     1.5636401     0.7997661
C           4.8957483     1.7086363     0.0581311
H           4.9466125     2.7818390    -0.1077290
C           3.7228925     1.0252930    -0.2547405
H           2.8773532     1.5616886    -0.6758541
C           3.6319431    -0.3625229    -0.0541635
C           4.7434854    -1.0374727     0.4752166
H           4.6813962    -2.1096314     0.6525667
C           5.9227644    -0.3512009     0.7642236
H           6.7740230    -0.8972525     1.1630229
30
384_C14H15N_0-3-25-26 (135,) energy =    -597.2768528
C           1.1613663    -0.5244796     0.2236684
H           1.2503577    -0.4326026     1.3180775
H           0.9271284     0.4751965    -0.1587666
N           2.4287588    -0.9687507    -0.3824038
H           2.5223239    -1.9757484    -0.2897998
C          -1.9991804    -3.3251393    -0.6824534
H          -2.7902004    -4.0340385    -0.9128749
C          -1.4423988    -3.2818376     0.5937193
H          -1.7922207    -3.9539936     1.3725246
C          -0.4268992    -2.3634144     0.8647224
H           0.0110245    -2.3229892     1.8600244
C           0.0408572    -1.4839881    -0.1178873
C          -0.5225642    -1.5242833    -1.4122977
C          -0.0592902    -0.5831375    -2.5005157
H          -0.5096821    -0.8449297    -3.4628462
H           1.0300708    -0.6045747    -2.6061672
H          -0.3411201     0.4553082    -2.2782467
C          -1.5383212    -2.4518771    -1.6694972
H          -1.9767742    -2.4882697    -2.6642724
C           6.0501903     0.9697974     0.6238680
H           6.9838269     1.4650416     0.8740971
C           4.9029039     1.7162031     0.3488771
H           4.9405934     2.8022796     0.3820527
C           3.7010213     1.0893570     0.0240933
H           2.8254417     1.6901811    -0.2017185
C           3.6220393    -0.3134987    -0.0303335
C           4.7762211    -1.0595113     0.2681890
H           4.7274087    -2.1468044     0.2484124
C           5.9764606    -0.4238049     0.5767748
H           6.8554029    -1.0247908     0.7964703
30
384_C14H15N_0-3-25-26 (150,) energy =    -597.2780598
C           1.1289852    -0.4601938     0.1670873
H           1.1765184    -0.2785341     1.2531287
H           0.9124575     0.5059498    -0.3044474
N           2.4125170    -0.9519244    -0.3484049
H           2.4797380    -1.9608378    -0.2698469
C          -2.0035352    -3.3234986    -0.6324544
H          -2.7873986    -4.0484517    -0.8357238
C          -1.4848762    -3.1894827     0.6535755
H          -1.8577100    -3.8060213     1.4669211
C          -0.4779649    -2.2523020     0.8894960
H          -0.0693629    -2.1413242     1.8917913
C           0.0184971    -1.4432789    -0.1385314
C          -0.5060147    -1.5752795    -1.4430934
C          -0.0118364    -0.7112448    -2.5808742
H          -0.4350417    -1.0402851    -3.5348183
H           1.0800498    -0.7367956    -2.6559072
H          -0.2994455     0.3395645    -2.4394044
C          -1.5137405    -2.5209446    -1.6644154
H          -1.9227206    -2.6279440    -2.6666036
C           6.0573138     0.9402319     0.6413606
H           6.9992644     1.4218013     0.8868041
C           4.8758349     1.6791469     0.5826158
H           4.8928706     2.7475135     0.7838954
C           3.6603279     1.0692845     0.2709239
H           2.7567989     1.6688491     0.2300424
C           3.6060821    -0.3102028     0.0025316
C           4.8001509    -1.0531284     0.0774689
H           4.7728399    -2.1239381    -0.1161059
C           6.0066128    -0.4328176     0.3850619
H           6.9135052    -1.0305457     0.4334668
30
384_C14H15N_0-3-25-26 (165,) energy =    -597.2785149
C           1.1012301    -0.4622480     0.2003178
H           1.0831173    -0.2345185     1.2793607
H           0.9395277     0.4882654    -0.3233065
N           2.3960399    -0.9986909    -0.2151349
H           2.4562242    -2.0047824    -0.1143630
C          -2.0407043    -3.2954209    -0.6696527
H          -2.8265804    -4.0129664    -0.8906484
C          -1.5926937    -3.1218382     0.6379802
H          -2.0234947    -3.6999488     1.4509110
C          -0.5819456    -2.1947170     0.8962572
H          -0.2286438    -2.0527440     1.9155127
C          -0.0112001    -1.4353014    -0.1309797
C          -0.4640907    -1.6071266    -1.4575108
C           0.1113980    -0.7972100    -2.5968787
H          -0.2733678    -1.1472432    -3.5595645
H           1.2044582    -0.8557842    -2.6162357
H          -0.1508296     0.2655891    -2.5052692
C          -1.4770395    -2.5417338    -1.7007978
H          -1.8312021    -2.6789670    -2.7200139
C           6.0464250     0.9746439     0.5550684
H           6.9911061     1.4771353     0.7406673
C           4.8401021     1.6606920     0.6847618
H           4.8387739     2.7081877     0.9764440
C           3.6196446     1.0232380     0.4534882
H           2.6969634     1.5818466     0.5694593
C           3.5872054    -0.3305973     0.0736462
C           4.8107141    -1.0189126    -0.0550308
H           4.8013969    -2.0661800    -0.3511450
C           6.0181830    -0.3737152     0.1842322
H           6.9466035    -0.9297594     0.0793341
30
384_C14H15N_0-3-25-26 (180,) energy =    -597.2777884
C           1.0809608    -0.4736646     0.2809901
H           0.9885649    -0.2097644     1.3485703
H           0.9828227     0.4636854    -0.2815365
N           2.3831547    -1.0488261    -0.0274659
H           2.4393597    -2.0530568     0.0776764
C          -2.0653060    -3.2642913    -0.7075376
H          -2.8522594    -3.9707874    -0.9583384
C          -1.6957140    -3.0625447     0.6203705
H          -2.1895558    -3.6077815     1.4200529
C          -0.6820895    -2.1497580     0.9159673
H          -0.3901997    -1.9854720     1.9511821
C          -0.0306184    -1.4329389    -0.0935932
C          -0.4033556    -1.6337560    -1.4408099
C           0.2601064    -0.8702850    -2.5642417
H          -0.0698036    -1.2425630    -3.5388862
H           1.3507615    -0.9500538    -2.5125984
H           0.0149425     0.1995997    -2.5212039
C          -1.4210063    -2.5527513    -1.7211977
H          -1.7142518    -2.7115645    -2.7565029
C           6.0326567     1.0153618     0.4222559
H           6.9763681     1.5431588     0.5232713
C           4.8300650     1.6480969     0.7309530
H           4.8305788     2.6778427     1.0803164
C           3.6111479     0.9773254     0.6105182
H           2.6922848     1.4915579     0.8717632
C           3.5759728    -0.3558498     0.1630095
C           4.7957493    -0.9855481    -0.1611884
H           4.7812929    -2.0104230    -0.5265752
C           6.0024291    -0.3110257    -0.0223291
H           6.9283418    -0.8225307    -0.2739710
