22
034_C10H10N2_2-0-18-17 (-165,) energy =    -496.5462030
C           2.3606079    -0.9569092    -1.3180225
H           2.4335468    -0.6498342    -2.3755805
C           1.0583398    -0.4558154    -0.7455152
H           0.9378399     0.6235574    -0.6932443
C           0.0770635    -1.2562217    -0.3267855
H          -0.8441911    -0.8191354     0.0553988
C           0.1613226    -2.7586179    -0.3331575
H          -0.0221164    -3.1463540     0.6827875
H          -0.6584594    -3.1808650    -0.9388393
C           1.4838616    -3.2646765    -0.8415996
H           1.6274296    -4.3443476    -0.8511235
C           2.4619492    -2.4703956    -1.2789957
H           3.3982570    -2.8891342    -1.6405245
C           5.7980624     0.6844960     0.4848169
H           6.6891590     1.0990562     0.9443355
C           5.8418955     0.0100516    -0.7345898
H           6.7807657    -0.1238165    -1.2707729
N           4.7516519    -0.4998084    -1.3121646
C           3.5899512    -0.3412684    -0.6529734
N           3.4368090     0.2873785     0.5198081
C           4.5429943     0.7968968     1.0749133
H           4.4111956     1.3109336     2.0262647
22
034_C10H10N2_2-0-18-17 (-150,) energy =    -496.5460836
C           2.4007443    -1.0156979    -1.3675700
H           2.5267344    -0.7734743    -2.4349019
C           1.0877457    -0.4562384    -0.8776253
H           0.9752924     0.6249122    -0.9289886
C           0.0885386    -1.2065035    -0.4119189
H          -0.8370433    -0.7291504    -0.0937515
C           0.1587087    -2.7036164    -0.2790058
H          -0.0228068    -2.9923425     0.7698383
H          -0.6677315    -3.1726252    -0.8390382
C           1.4738347    -3.2685366    -0.7424256
H           1.5957581    -4.3489804    -0.6783067
C           2.4695625    -2.5243904    -1.2260012
H           3.3978179    -2.9889578    -1.5528083
C           5.7841262     0.6624640     0.4992589
H           6.6607444     1.0877874     0.9765221
C           5.8115389     0.1981422    -0.8138864
H           6.7221799     0.2456784    -1.4099168
N           4.7365253    -0.3206184    -1.4151371
C           3.6107210    -0.3846700    -0.6833509
N           3.4765927     0.0286978     0.5850775
C           4.5639061     0.5514476     1.1613347
H           4.4482615     0.8910013     2.1900277
22
034_C10H10N2_2-0-18-17 (-135,) energy =    -496.5459214
C           2.4344520    -1.0720412    -1.4081789
H           2.6041418    -0.8797593    -2.4783434
C           1.1174809    -0.4599105    -0.9913355
H           1.0191306     0.6141686    -1.1387644
C           0.1035480    -1.1561376    -0.4762604
H          -0.8197909    -0.6432705    -0.2110032
C           0.1508382    -2.6387187    -0.2254159
H          -0.0255188    -2.8416797     0.8441271
H          -0.6885250    -3.1346703    -0.7410716
C           1.4513164    -3.2609173    -0.6550870
H           1.5470005    -4.3383255    -0.5275020
C           2.4631737    -2.5700828    -1.1822790
H           3.3781122    -3.0794352    -1.4798422
C           5.7488665     0.6816531     0.5152353
H           6.6054279     1.1283466     1.0091682
C           5.7363891     0.4274048    -0.8532178
H           6.5939291     0.6691752    -1.4799800
N           4.6838898    -0.1176007    -1.4742120
C           3.6237231    -0.4190030    -0.7064794
N           3.5334412    -0.2210226     0.6180089
C           4.5948581     0.3293046     1.2131788
H           4.5153534     0.4921977     2.2875056
22
034_C10H10N2_2-0-18-17 (-120,) energy =    -496.5458691
C           2.4759911    -1.1445082    -1.4337043
H           2.6815992    -1.0003748    -2.5045626
C           1.1646658    -0.4746338    -1.0870706
H           1.0962156     0.5887330    -1.3106098
C           0.1269797    -1.1097901    -0.5409194
H          -0.7864287    -0.5575172    -0.3246594
C           0.1313778    -2.5744760    -0.1981130
H          -0.0518465    -2.7062137     0.8813411
H          -0.7217721    -3.0756596    -0.6851445
C           1.4137490    -3.2589192    -0.5852087
H           1.4727057    -4.3310207    -0.4028092
C           2.4529059    -2.6277635    -1.1333574
H           3.3529073    -3.1827943    -1.3928624
C           5.7133639     0.7189484     0.5191720
H           6.5472813     1.1976015     1.0218649
C           5.6313932     0.6470025    -0.8677725
H           6.4081669     1.0720898    -1.5021891
N           4.6068660     0.0597779    -1.4989936
C           3.6462728    -0.4664739    -0.7227635
N           3.6276006    -0.4524420     0.6201326
C           4.6593602     0.1396875     1.2252996
H           4.6398697     0.1495522     2.3146341
22
034_C10H10N2_2-0-18-17 (-105,) energy =    -496.5458491
C           1.8581374    -0.4893057    -0.4650097
H           1.2853210     0.4393621    -0.3249764
C           1.3879001    -1.5046210     0.5563718
H           1.4633754    -1.2027320     1.5996685
C           0.9024828    -2.7060214     0.2402313
H           0.5810383    -3.3799540     1.0331565
C           0.7568674    -3.2017163    -1.1725222
H           1.3422363    -4.1268025    -1.3061658
H          -0.2866535    -3.5078800    -1.3555573
C           1.1792121    -2.1812331    -2.1938626
H           1.0689202    -2.4595962    -3.2409269
C           1.6734906    -0.9827579    -1.8817308
H           1.9664948    -0.2935991    -2.6719995
C           5.8472640     0.5963890     0.3544146
H           6.8735536     0.8751231     0.5694748
C           4.7791195     1.4432248     0.6337086
H           4.9376522     2.4229533     1.0826885
N           3.5094412     1.1117243     0.3688320
C           3.3070066    -0.0950791    -0.1837621
N           4.2624600    -0.9878288    -0.4893288
C           5.5203998    -0.6318024    -0.2193109
H           6.2926927    -1.3577396    -0.4716796
22
034_C10H10N2_2-0-18-17 (-90,) energy =    -496.5459890
C           1.8947525    -0.4958896    -0.5383258
H           1.3193780     0.4396251    -0.4601853
C           1.3927461    -1.4454934     0.5321424
H           1.4797381    -1.0924728     1.5580720
C           0.8677042    -2.6440744     0.2735324
H           0.5241702    -3.2669789     1.0983072
C           0.7030240    -3.2015164    -1.1139340
H           1.2309941    -4.1663970    -1.1944078
H          -0.3560868    -3.4528882    -1.2921014
C           1.1962531    -2.2621660    -2.1805219
H           1.1032227    -2.5996819    -3.2116654
C           1.7374312    -1.0704190    -1.9255905
H           2.0878413    -0.4475273    -2.7464727
C           5.8506732     0.6127502     0.3968748
H           6.8673519     0.8984912     0.6456342
C           4.7499276     1.3392532     0.8441188
H           4.8736985     2.2254995     1.4653982
N           3.4929546     1.0013359     0.5380434
C           3.3339550    -0.0926634    -0.2262178
N           4.3213125    -0.8642965    -0.7045658
C           5.5686538    -0.5010956    -0.3909562
H           6.3672632    -1.1278560    -0.7863409
22
034_C10H10N2_2-0-18-17 (-75,) energy =    -496.5461858
C           1.9080284    -0.5151865    -0.6073253
H           1.3387836     0.4292289    -0.6066050
C           1.3551074    -1.3832368     0.5072558
H           1.4414801    -0.9732495     1.5112366
C           0.7893712    -2.5742261     0.3059857
H           0.4090056    -3.1368745     1.1575002
C           0.6273958    -3.2026776    -1.0513190
H           1.1024023    -4.1979190    -1.0615182
H          -0.4394764    -3.4069372    -1.2437031
C           1.1982373    -2.3560921    -2.1565807
H           1.1278727    -2.7566600    -3.1667167
C           1.7824359    -1.1736916    -1.9588368
H           2.1920249    -0.6232944    -2.8029450
C           5.8363561     0.6218770     0.4070121
H           6.8448267     0.9156397     0.6786829
C           4.7145336     1.1956646     1.0030864
H           4.8147270     1.9644435     1.7684673
N           3.4685033     0.8472627     0.6723708
C           3.3392562    -0.1041944    -0.2694433
N           4.3467060    -0.7199837    -0.9024254
C           5.5852939    -0.3473032    -0.5597641
H           6.4003100    -0.8472642    -1.0817968
22
034_C10H10N2_2-0-18-17 (-60,) energy =    -496.5461152
C           1.9455756    -0.5342231    -0.6621459
H           1.3928700     0.4190758    -0.7444754
C           1.3226930    -1.3149772     0.4792860
H           1.3913620    -0.8500197     1.4593681
C           0.7210189    -2.4950216     0.3229545
H           0.2890833    -2.9941429     1.1894092
C           0.5870057    -3.1960315    -1.0015744
H           1.0211152    -4.2077228    -0.9348911
H          -0.4787345    -3.3707900    -1.2268279
C           1.2345242    -2.4381137    -2.1288006
H           1.1896480    -2.8960275    -3.1158311
C           1.8526319    -1.2656881    -1.9777989
H           2.3156086    -0.7817335    -2.8336665
C           5.8515283     0.6432795     0.4042506
H           6.8531788     0.9485460     0.6880745
C           4.7267023     1.0337943     1.1299542
H           4.8180245     1.6652536     2.0130330
N           3.4897838     0.6669455     0.7887691
C           3.3702674    -0.1151070    -0.2990714
N           4.3808800    -0.5446579    -1.0654932
C           5.6115058    -0.1583721    -0.7069565
H           6.4282852    -0.5083733    -1.3370302
22
034_C10H10N2_2-0-18-17 (-45,) energy =    -496.5456707
C           1.9823643    -0.5638348    -0.6947926
H           1.4526976     0.3934742    -0.8655049
C           1.2805968    -1.2599086     0.4536997
H           1.3246777    -0.7517650     1.4123441
C           0.6402802    -2.4232128     0.3267622
H           0.1502451    -2.8604286     1.1957757
C           0.5418384    -3.1892191    -0.9644545
H           0.9272415    -4.2128324    -0.8223746
H          -0.5176515    -3.3324538    -1.2368824
C           1.2775443    -2.5199854    -2.0935173
H           1.2667079    -3.0304936    -3.0555005
C           1.9298469    -1.3621789    -1.9746864
H           2.4538948    -0.9417857    -2.8275751
C           5.8660218     0.6695433     0.4096801
H           6.8610860     0.9905304     0.6991735
C           4.7611430     0.8489263     1.2404795
H           4.8605841     1.3248476     2.2154399
N           3.5329122     0.4565600     0.8958120
C           3.3998421    -0.1336682    -0.3046280
N           4.3920588    -0.3478453    -1.1789925
C           5.6142209     0.0567662    -0.8135488
H           6.4144051    -0.1204053    -1.5311576
22
034_C10H10N2_2-0-18-17 (-30,) energy =    -496.5453024
C           2.0003920    -0.5834923    -0.7203245
H           1.5002667     0.3691461    -0.9857577
C           1.2262511    -1.1930745     0.4281426
H           1.2396362    -0.6371109     1.3600046
C           0.5538293    -2.3415613     0.3342792
H           0.0080966    -2.7122770     1.2009941
C           0.4951671    -3.1808821    -0.9127677
H           0.8334408    -4.2066731    -0.6895954
H          -0.5527396    -3.3039219    -1.2354854
C           1.3152646    -2.6064901    -2.0355590
H           1.3462315    -3.1772654    -2.9627310
C           1.9924771    -1.4599164    -1.9525533
H           2.5768792    -1.1056994    -2.7955090
C           5.8697419     0.6896793     0.4023311
H           6.8614011     1.0223157     0.6903810
C           4.8120120     0.6481092     1.3074127
H           4.9447996     0.9561268     2.3439126
N           3.5882600     0.2361051     0.9648191
C           3.4127603    -0.1482076    -0.3094515
N           4.3583250    -0.1336838    -1.2608967
C           5.5749457     0.2826280    -0.8958744
H           6.3359471     0.2891628    -1.6753547
22
034_C10H10N2_2-0-18-17 (-15,) energy =    -496.5454756
C           2.0060517    -0.5816804    -0.7573281
H           1.5384061     0.3559781    -1.1161465
C           1.1711113    -1.1118059     0.3846676
H           1.1411696    -0.5018469     1.2819980
C           0.4881139    -2.2566284     0.3291530
H          -0.1070123    -2.5646810     1.1877346
C           0.4847455    -3.1761568    -0.8614012
H           0.7974267    -4.1879008    -0.5532025
H          -0.5458666    -3.3105254    -1.2318001
C           1.3707452    -2.6849767    -1.9734315
H           1.4465607    -3.3176138    -2.8568770
C           2.0516727    -1.5386433    -1.9308939
H           2.6831878    -1.2391524    -2.7615860
C           5.8654220     0.6901035     0.3948385
H           6.8564264     1.0224484     0.6854248
C           4.8694617     0.4300976     1.3310721
H           5.0507760     0.5576309     2.3976321
N           3.6459242     0.0147906     0.9848055
C           3.4115814    -0.1480807    -0.3247961
N           4.2951531     0.0912943    -1.3084205
C           5.5103881     0.5031435    -0.9396738
H           6.2212482     0.6915115    -1.7434809
22
034_C10H10N2_2-0-18-17 (0,) energy =    -496.5459557
C           2.0064562    -0.5615807    -0.8192438
H           1.5788131     0.3580688    -1.2596200
C           1.1160614    -1.0155198     0.3113259
H           1.0328757    -0.3429695     1.1603914
C           0.4414568    -2.1664018     0.3044084
H          -0.1980887    -2.4155143     1.1499315
C           0.5079984    -3.1717560    -0.8128914
H           0.8240654    -4.1510722    -0.4161132
H          -0.5022436    -3.3544015    -1.2169496
C           1.4328769    -2.7468226    -1.9205815
H           1.5461149    -3.4344949    -2.7576641
C           2.0991780    -1.5914031    -1.9285043
H           2.7561056    -1.3344704    -2.7549814
C           5.8674729     0.6334737     0.3907464
H           6.8621327     0.9437638     0.6930514
C           4.9270646     0.1748046     1.3072431
H           5.1576804     0.1141385     2.3701450
N           3.6984035    -0.2148969     0.9457670
C           3.4047793    -0.1434542    -0.3588358
N           4.2321287     0.2973198    -1.3232180
C           5.4529491     0.6758417    -0.9399152
H           6.1194018     1.0282703    -1.7264092
22
034_C10H10N2_2-0-18-17 (15,) energy =    -496.5462015
C           2.0135049    -0.5576290    -0.8654349
H           1.6112732     0.3312272    -1.3814887
C           1.0823124    -0.9417590     0.2571754
H           0.9736306    -0.2192315     1.0623670
C           0.3996594    -2.0870085     0.2937986
H          -0.2716029    -2.2843396     1.1282546
C           0.5051171    -3.1589083    -0.7569812
H           0.7977510    -4.1128762    -0.2873184
H          -0.4883040    -3.3618882    -1.1916768
C           1.4787380    -2.8087312    -1.8493206
H           1.6238296    -3.5484085    -2.6355789
C           2.1504422    -1.6576713    -1.9014946
H           2.8408736    -1.4535559    -2.7165551
C           5.8601039     0.6204368     0.3902811
H           6.8538294     0.9230038     0.7033527
C           4.9829430    -0.0327799     1.2503805
H           5.2656830    -0.2632528     2.2768431
N           3.7555595    -0.4132363     0.8758581
C           3.3976448    -0.1282694    -0.3829839
N           4.1618849     0.5040654    -1.2915107
C           5.3845259     0.8666653    -0.8970151
H           6.0005612     1.3759848    -1.6372920
22
034_C10H10N2_2-0-18-17 (30,) energy =    -496.5461065
C           2.0242777    -0.5526855    -0.9355093
H           1.6602127     0.3110353    -1.5148217
C           1.0509908    -0.8568084     0.1766310
H           0.9073138    -0.0739198     0.9185543
C           0.3742397    -2.0013150     0.2784797
H          -0.3250257    -2.1391295     1.1017716
C           0.5241680    -3.1497677    -0.6820492
H           0.8239472    -4.0575892    -0.1322440
H          -0.4547847    -3.4063248    -1.1209018
C           1.5151654    -2.8668577    -1.7781613
H           1.6760136    -3.6555845    -2.5119026
C           2.1811116    -1.7171178    -1.8950472
H           2.8818530    -1.5646797    -2.7134854
C           5.8541542     0.5966216     0.3911676
H           6.8445234     0.8897965     0.7233717
C           5.0406197    -0.2432502     1.1475261
H           5.3748112    -0.6373369     2.1066293
N           3.8190024    -0.6132668     0.7492802
C           3.3983507    -0.1247980    -0.4262983
N           4.0984403     0.6916942    -1.2327457
C           5.3196809     1.0400105    -0.8165719
H           5.8838424     1.7004752    -1.4740569
22
034_C10H10N2_2-0-18-17 (45,) energy =    -496.5459288
C           2.0453519    -0.5626441    -1.0191573
H           1.7228362     0.2794220    -1.6501683
C           1.0344501    -0.7805239     0.0820007
H           0.8620987     0.0620699     0.7493499
C           0.3619780    -1.9181520     0.2599931
H          -0.3606840    -1.9934702     1.0711758
C           0.5418801    -3.1379814    -0.6018924
H           0.8542113    -3.9922941     0.0216582
H          -0.4289505    -3.4469212    -1.0243698
C           1.5353739    -2.9258402    -1.7114371
H           1.6986213    -3.7607281    -2.3915572
C           2.2003433    -1.7852596    -1.9010624
H           2.9026859    -1.6905610    -2.7273571
C           5.8392080     0.5838194     0.4129624
H           6.8188457     0.8767584     0.7758673
C           5.1042748    -0.4370976     1.0132955
H           5.4941593    -0.9797212     1.8738622
N           3.8977991    -0.8082071     0.5766939
C           3.4100220    -0.1391461    -0.4796179
N           4.0313756     0.8570227    -1.1323168
C           5.2411176     1.2056442    -0.6794141
H           5.7414517     2.0130021    -1.2128038
22
034_C10H10N2_2-0-18-17 (60,) energy =    -496.5458690
C           2.0741509    -0.5908811    -1.0963233
H           1.7867231     0.2262737    -1.7741982
C           1.0348282    -0.7158364    -0.0042917
H           0.8549283     0.1780571     0.5907105
C           0.3521378    -1.8333414     0.2478813
H          -0.3855914    -1.8419659     1.0489999
C           0.5346774    -3.1139187    -0.5199542
H           0.8484556    -3.9187567     0.1656774
H          -0.4359118    -3.4543845    -0.9177156
C           1.5289785    -2.9836011    -1.6411478
H           1.6808886    -3.8612862    -2.2678523
C           2.2120032    -1.8673003    -1.8980590
H           2.9173293    -1.8382419    -2.7269685
C           5.8071160     0.5959507     0.4598875
H           6.7687395     0.9007502     0.8594306
C           5.1772072    -0.5796366     0.8676093
H           5.6352245    -1.2356312     1.6072114
N           3.9947788    -0.9668677     0.3845173
C           3.4251830    -0.1612424    -0.5267731
N           3.9416221     0.9887043    -0.9884617
C           5.1290116     1.3542995    -0.4891502
H           5.5437648     2.2878755    -0.8672798
22
034_C10H10N2_2-0-18-17 (75,) energy =    -496.5458595
C           2.1326401    -0.6418566    -1.1545962
H           1.8655201     0.1453229    -1.8754870
C           1.0757106    -0.6786097    -0.0697144
H           0.9220333     0.2499541     0.4774171
C           0.3516161    -1.7590731     0.2257962
H          -0.3950795    -1.7038934     1.0168014
C           0.4924783    -3.0779411    -0.4837367
H           0.7535073    -3.8666671     0.2415179
H          -0.4844814    -3.3900230    -0.8893091
C           1.5172487    -3.0400671    -1.5843449
H           1.6541173    -3.9546864    -2.1593694
C           2.2488508    -1.9642935    -1.8768087
H           2.9801623    -2.0081152    -2.6821114
C           5.7936517     0.6359853     0.4960000
H           6.7335615     0.9673121     0.9249212
C           5.3067842    -0.6554715     0.6945498
H           5.8592260    -1.3795910     1.2925363
N           4.1523421    -1.0770259     0.1732716
C           3.4693609    -0.1905579    -0.5691328
N           3.8440436     1.0736209    -0.8222503
C           5.0028319     1.4736312    -0.2844742
H           5.3019117     2.5001542    -0.4928225
22
034_C10H10N2_2-0-18-17 (90,) energy =    -496.5460186
C           2.1784878    -0.7007189    -1.1969509
H           1.9361317     0.0457049    -1.9695014
C           1.0953286    -0.6448115    -0.1368969
H           0.9715919     0.3133714     0.3642717
C           0.3200662    -1.6809093     0.1865213
H          -0.4409179    -1.5599574     0.9563007
C           0.4200883    -3.0335002    -0.4642310
H           0.6052754    -3.8045115     0.3022250
H          -0.5539389    -3.3103135    -0.9016560
C           1.4936979    -3.0949744    -1.5163514
H           1.6211153    -4.0458626    -2.0315276
C           2.2825445    -2.0668421    -1.8306734
H           3.0507897    -2.1864097    -2.5922561
C           5.7785324     0.6659079     0.5128131
H           6.7005641     1.0239048     0.9587478
C           5.4332537    -0.6836619     0.5142479
H           6.0834205    -1.4307045     0.9682668
N           4.3004772    -1.1379608    -0.0306498
C           3.4994618    -0.2239647    -0.5978662
N           3.7347183     1.0980434    -0.6557846
C           4.8704800     1.5282115    -0.0968120
H           5.0562640     2.6005511    -0.1449786
22
034_C10H10N2_2-0-18-17 (105,) energy =    -496.5461934
C           2.2142153    -0.7593810    -1.2180289
H           2.0005323    -0.0572609    -2.0412901
C           1.0991521    -0.6194729    -0.1986088
H           1.0000131     0.3617654     0.2604249
C           0.2725535    -1.6120490     0.1337231
H          -0.5094841    -1.4326648     0.8703176
C           0.3421466    -2.9916883    -0.4623507
H           0.4446606    -3.7412342     0.3400193
H          -0.6181619    -3.2385703    -0.9460229
C           1.4696951    -3.1437090    -1.4469968
H           1.5923792    -4.1249107    -1.9030515
C           2.3111769    -2.1604059    -1.7688875
H           3.1177591    -2.3463286    -2.4744860
C           5.7817087     0.6814861     0.4995583
H           6.6943744     1.0604925     0.9473199
C           5.5604734    -0.6801590     0.3154813
H           6.3032218    -1.4179679     0.6166409
N           4.4386372    -1.1604633    -0.2333894
C           3.5235941    -0.2585211    -0.6129853
N           3.6373381     1.0756790    -0.4871006
C           4.7620768     1.5300054     0.0712464
H           4.8487040     2.6111736     0.1734679
22
034_C10H10N2_2-0-18-17 (120,) energy =    -496.5461176
C           2.2521759    -0.8072960    -1.2135432
H           2.0798384    -0.1484386    -2.0837207
C           1.0934211    -0.5978714    -0.2574453
H           0.9992767     0.4031627     0.1556340
C           0.2282167    -1.5576026     0.0730798
H          -0.5844590    -1.3305328     0.7618418
C           0.2950766    -2.9631377    -0.4596630
H           0.3338088    -3.6793715     0.3780441
H          -0.6428367    -3.2093084    -0.9859392
C           1.4707893    -3.1833945    -1.3726141
H           1.5948699    -4.1868787    -1.7770225
C           2.3500582    -2.2333666    -1.6947383
H           3.1877288    -2.4670631    -2.3464254
C           5.7977419     0.7012894     0.4985486
H           6.7054220     1.0981406     0.9408685
C           5.6770182    -0.6366238     0.1374268
H           6.4977550    -1.3374940     0.2850949
N           4.5614889    -1.1388707    -0.4062317
C           3.5483048    -0.2838028    -0.5948206
N           3.5633435     1.0269776    -0.2930918
C           4.6836568     1.5033287     0.2536064
H           4.6890407     2.5648363     0.4987591
22
034_C10H10N2_2-0-18-17 (135,) energy =    -496.5457235
C           2.2762147    -0.8448831    -1.2106062
H           2.1548164    -0.2350702    -2.1265007
C           1.0743931    -0.5680197    -0.3300686
H           0.9763717     0.4529165     0.0270536
C           0.1770213    -1.4971537     0.0027466
H          -0.6673798    -1.2227464     0.6337506
C           0.2493479    -2.9308520    -0.4476799
H           0.2405657    -3.5992331     0.4296880
H          -0.6663366    -3.1973769    -1.0023269
C           1.4628119    -3.2136845    -1.2912193
H           1.5882725    -4.2376086    -1.6404301
C           2.3720499    -2.2942788    -1.6199798
H           3.2338183    -2.5705589    -2.2200230
C           5.8125982     0.7138267     0.4869183
H           6.7188252     1.1228541     0.9210271
C           5.7641857    -0.5690099    -0.0487611
H           6.6438335    -1.2115199    -0.0548256
N           4.6508434    -1.0858813    -0.5822935
C           3.5627215    -0.3045642    -0.5793408
N           3.5059967     0.9515446    -0.1033665
C           4.6269409     1.4446931     0.4270080
H           4.5721408     2.4616825     0.8138745
22
034_C10H10N2_2-0-18-17 (150,) energy =    -496.5453301
C           2.2972946    -0.8823517    -1.2127281
H           2.2200693    -0.3379747    -2.1749441
C           1.0617133    -0.5457873    -0.4062270
H           0.9591237     0.4915591    -0.1041705
C           0.1358430    -1.4454502    -0.0695411
H          -0.7333698    -1.1269400     0.5044396
C           0.2083195    -2.9024794    -0.4370131
H           0.1338550    -3.5223117     0.4721610
H          -0.6766709    -3.1850225    -1.0324037
C           1.4645293    -3.2475873    -1.1893797
H           1.5998000    -4.2927959    -1.4643029
C           2.3983562    -2.3569417    -1.5284723
H           3.2887266    -2.6731389    -2.0622510
C           5.8245463     0.7314948     0.4615916
H           6.7302084     1.1509139     0.8868510
C           5.8289021    -0.4620250    -0.2546211
H           6.7511400    -1.0181200    -0.4189508
N           4.7184458    -0.9908256    -0.7787329
C           3.5757764    -0.3169304    -0.5812420
N           3.4652394     0.8474716     0.0783114
C           4.5870049     1.3569522     0.5941845
H           4.4868592     2.3004239     1.1296157
22
034_C10H10N2_2-0-18-17 (165,) energy =    -496.5454138
C           2.3182013    -0.9065855    -1.2379155
H           2.2912702    -0.4400278    -2.2423144
C           1.0527523    -0.5140231    -0.5112223
H           0.9371684     0.5406147    -0.2824790
C           0.1047045    -1.3846710    -0.1600577
H          -0.7888157    -1.0228859     0.3468779
C           0.1854187    -2.8646761    -0.4172604
H           0.0641548    -3.4161254     0.5301601
H          -0.6714943    -3.1882700    -1.0324093
C           1.4746964    -3.2663639    -1.0799150
H           1.6201400    -4.3294102    -1.2676747
C           2.4261981    -2.4036330    -1.4404898
H           3.3412146    -2.7539931    -1.9076061
C           5.8252536     0.7185913     0.4675319
H           6.7282940     1.1357481     0.9005481
C           5.8601176    -0.3374128    -0.4406782
H           6.8050911    -0.7805988    -0.7528951
N           4.7548021    -0.8611748    -0.9764378
C           3.5836135    -0.3239119    -0.5967135
N           3.4405636     0.6978639     0.2593847
C           4.5610026     1.2076134     0.7823074
H           4.4341112     2.0368400     1.4772782
22
034_C10H10N2_2-0-18-17 (180,) energy =    -496.5459309
C           2.3349022    -0.9174607    -1.2875670
H           2.3627926    -0.5316081    -2.3235362
C           1.0471796    -0.4702342    -0.6401999
H           0.9180291     0.6006506    -0.5114611
C           0.0892025    -1.3093818    -0.2428893
H          -0.8223472    -0.9090927     0.1985278
C           0.1836977    -2.8064197    -0.3584998
H           0.0437087    -3.2675893     0.6334897
H          -0.6570904    -3.1922869    -0.9597257
C           1.4886766    -3.2603254    -0.9534025
H           1.6381684    -4.3350700    -1.0483027
C           2.4454010    -2.4278721    -1.3666247
H           3.3707445    -2.8103731    -1.7883524
C           5.8081645     0.6933307     0.4859808
H           6.7065388     1.1014582     0.9369319
C           5.8584649    -0.1780289    -0.6013787
H           6.8096986    -0.4783301    -1.0394697
N           4.7605892    -0.6862027    -1.1644749
C           3.5818349    -0.3223726    -0.6288459
N           3.4223179     0.5085203     0.4091989
C           4.5373578     1.0095634     0.9548184
H           4.3987858     1.6865015     1.7969487
