29
369_C12H16O_0-5-6-10 (-165,) energy =    -542.1403011
C          -0.0037535     1.0255373    -1.2375269
C          -1.3893453     0.9466170    -0.5787967
C          -1.5661939    -0.3674404     0.1962615
C          -0.4223079    -0.5746126     1.1996870
C           0.9566629    -0.4862298     0.5225014
C           1.1199072     0.8525712    -0.2119890
O           2.3419547     0.9501755    -0.9719864
C           6.0875502    -0.2121097     0.4477810
C           5.1991510     0.4274542     1.3134857
C           3.9312565     0.8139576     0.8753655
C           3.5391082     0.5445302    -0.4427704
C           4.4290972    -0.0936546    -1.3148608
C           5.6964362    -0.4644276    -0.8696958
H           0.1035215     0.2325806    -1.9895464
H           0.1272560     1.9800697    -1.7609880
H          -1.5156913     1.7950771     0.1098069
H          -2.1692674     1.0498446    -1.3431132
H          -2.5336380    -0.3787286     0.7139073
H          -1.5797210    -1.2070771    -0.5139022
H          -0.4888715     0.1891939     1.9887702
H          -0.5229472    -1.5450150     1.7010733
H           1.7489731    -0.6272831     1.2638280
H           1.0642227    -1.2947247    -0.2142247
H           1.0844178     1.6784596     0.5166724
H           7.0737165    -0.5077675     0.7941124
H           5.4941931     0.6379363     2.3384047
H           3.2553574     1.3319755     1.5488923
H           4.1078926    -0.2844459    -2.3342229
H           6.3795665    -0.9589468    -1.5555630
29
369_C12H16O_0-5-6-10 (-150,) energy =    -542.1377220
C           0.0293635     1.0321488    -1.2424476
C          -1.3831023     0.8387547    -0.6707041
C          -1.4876316    -0.4730848     0.1207135
C          -0.3950323    -0.5560067     1.1964825
C           1.0123153    -0.3551188     0.6060046
C           1.0981144     0.9795581    -0.1464943
O           2.3542497     1.2078528    -0.8283806
C           6.0278799    -0.3406267     0.3952842
C           5.2500284     0.3789268     1.3048326
C           4.0089396     0.8912365     0.9249121
C           3.5302889     0.6675964    -0.3730409
C           4.3098005    -0.0491839    -1.2871795
C           5.5550546    -0.5458017    -0.9028534
H           0.2551006     0.2395133    -1.9683468
H           0.1086197     1.9855081    -1.7782653
H          -1.6294520     1.6830050    -0.0099606
H          -2.1188739     0.8573740    -1.4840184
H          -2.4802676    -0.5657810     0.5791216
H          -1.3797194    -1.3219990    -0.5701229
H          -0.5800795     0.2133265     1.9608395
H          -0.4390628    -1.5219091     1.7144574
H           1.7614333    -0.4080694     1.4017492
H           1.2412361    -1.1674438    -0.0980360
H           0.9377728     1.8052999     0.5649647
H           6.9956865    -0.7332208     0.6940595
H           5.6138812     0.5536749     2.3142192
H           3.4156643     1.4741367     1.6235985
H           3.9252304    -0.1996373    -2.2912782
H           6.1547342    -1.1002593    -1.6202124
29
369_C12H16O_0-5-6-10 (-135,) energy =    -542.1356413
C           0.0827248     1.0361939    -1.2413133
C          -1.3493543     0.7435196    -0.7684674
C          -1.4101719    -0.5576992     0.0450176
C          -0.3993309    -0.5332727     1.2009426
C           1.0304287    -0.2383582     0.7114572
C           1.0679668     1.0801315    -0.0690780
O           2.3570088     1.4298842    -0.6365765
C           5.9568499    -0.4537685     0.3126220
C           5.3061217     0.3204181     1.2759654
C           4.0910876     0.9399560     0.9816621
C           3.5105086     0.7733656    -0.2822719
C           4.1635079     0.0032968    -1.2504395
C           5.3837346    -0.6039650    -0.9519853
H           0.4171918     0.2530548    -1.9356660
H           0.1306910     1.9860761    -1.7866182
H          -1.7067126     1.5777045    -0.1467509
H          -2.0238047     0.6898864    -1.6318881
H          -2.4242175    -0.7210010     0.4311723
H          -1.1843165    -1.4081309    -0.6148222
H          -0.6990168     0.2362922     1.9276582
H          -0.4103847    -1.4883150     1.7403540
H           1.7182526    -0.2087332     1.5626091
H           1.3738665    -1.0511846     0.0567721
H           0.7849911     1.8992257     0.6100028
H           6.9056127    -0.9299926     0.5435729
H           5.7503955     0.4525883     2.2592533
H           3.5933776     1.5649666     1.7176464
H           3.7058200    -0.0991902    -2.2297371
H           5.8860884    -1.1989150    -1.7104749
29
369_C12H16O_0-5-6-10 (-120,) energy =    -542.1348337
C           0.1709085     1.0468999    -1.2287160
C          -1.2728385     0.6585372    -0.8721896
C          -1.3135507    -0.6414226    -0.0550261
C          -0.4123667    -0.5458358     1.1852841
C           1.0324415    -0.1625382     0.8158678
C           1.0485560     1.1476136     0.0231271
O           2.3617748     1.6179849    -0.3838414
C           5.8850599    -0.5366665     0.2214487
C           5.4095590     0.3238455     1.2134569
C           4.2191342     1.0269370     1.0246047
C           3.4931777     0.8674401    -0.1613549
C           3.9733195     0.0137616    -1.1609653
C           5.1652041    -0.6855831    -0.9660197
H           0.6062736     0.2910435    -1.8978297
H           0.2010723     2.0025140    -1.7649466
H          -1.7338594     1.4687012    -0.2880128
H          -1.8705540     0.5573470    -1.7864142
H          -2.3439045    -0.8740946     0.2421048
H          -0.9725509    -1.4758468    -0.6853422
H          -0.8229592     0.2065155     1.8747007
H          -0.4101825    -1.4973030     1.7311191
H           1.6436770    -0.0704723     1.7206807
H           1.4814851    -0.9617315     0.2115101
H           0.6479279     1.9436526     0.6679019
H           6.8135821    -1.0810161     0.3694973
H           5.9689244     0.4530860     2.1365189
H           3.8466434     1.7120278     1.7806160
H           3.4117397    -0.0804641    -2.0857028
H           5.5336678    -1.3460728    -1.7468052
29
369_C12H16O_0-5-6-10 (-105,) energy =    -542.1354435
C           0.2897846     1.0678861    -1.1937837
C          -1.1715220     0.6428392    -0.9722035
C          -1.2570426    -0.6685749    -0.1757969
C          -0.4823671    -0.5692677     1.1478363
C           0.9813092    -0.1484471     0.9215582
C           1.0363642     1.1676631     0.1413929
O           2.3651416     1.7145779    -0.0549958
C           5.8694916    -0.5488706     0.1006689
C           5.5851323     0.4013327     1.0837316
C           4.3959043     1.1289122     1.0356293
C           3.4839560     0.9163058    -0.0041198
C           3.7754724    -0.0245499    -1.0004723
C           4.9614890    -0.7576162    -0.9395149
H           0.7921776     0.3302376    -1.8353338
H           0.3466802     2.0329074    -1.7104641
H          -1.7004451     1.4351637    -0.4220715
H          -1.6832579     0.5413470    -1.9371218
H          -2.3053527    -0.9281668     0.0182737
H          -0.8378721    -1.4869339    -0.7794967
H          -0.9757587     0.1650600     1.8013525
H          -0.5114099    -1.5274909     1.6809133
H           1.5038587    -0.0377469     1.8792650
H           1.5046800    -0.9350019     0.3636950
H           0.5367923     1.9376505     0.7460686
H           6.7944800    -1.1172152     0.1405595
H           6.2886540     0.5756320     1.8938854
H           4.1586643     1.8730331     1.7899718
H           3.0820767    -0.1643391    -1.8238360
H           5.1802692    -1.4867846    -1.7155734
29
369_C12H16O_0-5-6-10 (-90,) energy =    -542.1362387
C           0.3961709     0.8866278    -1.2209416
C          -1.0668813     0.4451098    -1.0467838
C          -1.1822620    -0.7257778    -0.0587377
C          -0.5252820    -0.3853092     1.2879436
C           0.9381007     0.0601289     1.1125412
C           1.0266036     1.2340507     0.1333645
O           2.3573366     1.7860926    -0.0242957
C           5.7846557    -0.6034361    -0.0467612
C           5.3884574     0.0592232     1.1170640
C           4.2289383     0.8348427     1.1262889
C           3.4544671     0.9517349    -0.0334559
C           3.8592908     0.3026584    -1.2063717
C           5.0182538    -0.4754415    -1.2068256
H           0.9683063     0.0721160    -1.6863913
H           0.4697440     1.7555741    -1.8853089
H          -1.6601371     1.2933201    -0.6741529
H          -1.4944521     0.1713743    -2.0192047
H          -2.2353327    -0.9952220     0.0912028
H          -0.6898775    -1.6109231    -0.4875691
H          -1.0946519     0.4198340     1.7751524
H          -0.5689975    -1.2483879     1.9636312
H           1.3706691     0.3459934     2.0788144
H           1.5337633    -0.7802936     0.7328808
H           0.4675055     2.0780054     0.5587271
H           6.6884039    -1.2064371    -0.0522316
H           5.9849207    -0.0249266     2.0219049
H           3.9149015     1.3658295     2.0197987
H           3.2755994     0.4300738    -2.1123701
H           5.3271712    -0.9754646    -2.1212804
29
369_C12H16O_0-5-6-10 (-75,) energy =    -542.1369648
C           0.5216984     0.7290377    -1.1944241
C          -0.9445730     0.2730633    -1.0985324
C          -1.1376007    -0.7645941     0.0175131
C          -0.6202696    -0.2340969     1.3631337
C           0.8468609     0.2221105     1.2674888
C           1.0206899     1.2611287     0.1547914
O           2.3585174     1.8096049     0.0703223
C           5.7450585    -0.6225221    -0.2140452
C           5.2884509    -0.1922572     1.0336936
C           4.1429718     0.5983787     1.1307245
C           3.4408892     0.9594711    -0.0251323
C           3.9074911     0.5434058    -1.2779425
C           5.0536339    -0.2481042    -1.3678499
H           1.1475669    -0.1198284    -1.5016040
H           0.6383013     1.5101465    -1.9552745
H          -1.5837727     1.1452287    -0.8961642
H          -1.2724678    -0.1343036    -2.0628729
H          -2.1960461    -1.0418139     0.1004773
H          -0.5918275    -1.6831659    -0.2434913
H          -1.2447176     0.6134598     1.6820194
H          -0.7187293    -1.0013674     2.1409747
H           1.1798740     0.6463025     2.2225154
H           1.4868591    -0.6457839     1.0611043
H           0.4262383     2.1463370     0.4142627
H           6.6387311    -1.2360337    -0.2871919
H           5.8282109    -0.4675020     1.9361943
H           3.7880478     0.9539388     2.0930063
H           3.3781769     0.8610693    -2.1705599
H           5.4106593    -0.5656130    -2.3442479
29
369_C12H16O_0-5-6-10 (-60,) energy =    -542.1371038
C           0.7124612     1.2609440     0.6817312
C          -0.7884371     1.3547696     0.3538497
C          -1.1971967     0.3348354    -0.7196121
C          -0.7963111    -1.0906665    -0.3109336
C           0.7048591    -1.1814878     0.0149789
C           1.0923779    -0.1654261     1.0962457
O           2.4721009    -0.2884775     1.5184818
C           5.6625346     0.6389764    -1.0188840
C           5.1308252     1.6119575    -0.1698866
C           4.0489743     1.3107692     0.6582489
C           3.4855845     0.0293895     0.6376541
C           4.0285019    -0.9522744    -0.1999426
C           5.1100533    -0.6433278    -1.0262686
H           1.2986430     1.5527636    -0.1996752
H           0.9746910     1.9571416     1.4877546
H          -1.3720172     1.1708351     1.2680307
H          -1.0346991     2.3732067     0.0289503
H          -2.2778840     0.3883556    -0.9021432
H          -0.7049743     0.5910080    -1.6692272
H          -1.3796577    -1.3918505     0.5717283
H          -1.0476855    -1.8029900    -1.1064315
H           0.9678696    -2.1909514     0.3539224
H           1.2868030    -0.9830025    -0.8949088
H           0.5482850    -0.4154372     2.0155857
H           6.5064694     0.8750373    -1.6611393
H           5.5626067     2.6092525    -0.1464312
H           3.6388959     2.0534116     1.3354702
H           3.6091836    -1.9531409    -0.1814193
H           5.5265410    -1.4118185    -1.6724402
29
369_C12H16O_0-5-6-10 (-45,) energy =    -542.1365940
C           0.8061841     1.2089753     0.4936478
C          -0.6953759     1.3748470     0.1974311
C          -1.2163582     0.2674485    -0.7310276
C          -0.9055023    -1.1250328    -0.1618309
C           0.5949212    -1.2855798     0.1368614
C           1.0925144    -0.1789561     1.0761429
O           2.4738163    -0.3842746     1.4631552
C           5.6719569     0.7783780    -0.9617424
C           5.2051394     1.6243000     0.0468493
C           4.1206282     1.2449478     0.8380775
C           3.4906500     0.0139188     0.6212591
C           3.9690542    -0.8431197    -0.3773985
C           5.0533331    -0.4563417    -1.1669453
H           1.3791276     1.3412584    -0.4332513
H           1.1460306     1.9830980     1.1923742
H          -1.2574896     1.3487126     1.1426132
H          -0.8776658     2.3623907    -0.2440363
H          -2.2961051     0.3820266    -0.8893911
H          -0.7414728     0.3693896    -1.7178467
H          -1.4788457    -1.2737740     0.7652010
H          -1.2336729    -1.9068891    -0.8578437
H           0.8014952    -2.2625505     0.5900839
H           1.1598893    -1.2379634    -0.8040488
H           0.5633121    -0.2730484     2.0327264
H           6.5178963     1.0747297    -1.5757118
H           5.6889256     2.5817149     0.2227079
H           3.7574008     1.8855596     1.6357518
H           3.5010797    -1.8130305    -0.5115415
H           5.4202182    -1.1277267    -1.9391445
29
369_C12H16O_0-5-6-10 (-30,) energy =    -542.1358103
C           0.8829404     1.1330700     0.2992715
C          -0.6177463     1.3676561     0.0474747
C          -1.2568261     0.1974518    -0.7158827
C          -1.0088513    -1.1368054     0.0041622
C           0.4905243    -1.3630675     0.2602165
C           1.1011328    -0.1905014     1.0383704
O           2.4817180    -0.4716841     1.3844386
C           5.7075287     0.9104280    -0.8806844
C           5.2942448     1.6012158     0.2606360
C           4.1999205     1.1505909     0.9993231
C           3.5090423     0.0015880     0.5982159
C           3.9316293    -0.7020753    -0.5362607
C           5.0246304    -0.2426499    -1.2729652
H           1.4159351     1.1086304    -0.6599718
H           1.3079393     1.9624724     0.8771395
H          -1.1326955     1.4955941     1.0109931
H          -0.7557062     2.3056261    -0.5043484
H          -2.3334029     0.3692381    -0.8404944
H          -0.8276089     0.1483311    -1.7273808
H          -1.5448227    -1.1348926     0.9649139
H          -1.4201047    -1.9706253    -0.5780695
H           0.6590890    -2.2914109     0.8184304
H           1.0145166    -1.4638513    -0.7005322
H           0.6056706    -0.1299922     2.0163814
H           6.5604505     1.2625364    -1.4542175
H           5.8265279     2.4935647     0.5799767
H           3.8742314     1.6697031     1.8957252
H           3.4127153    -1.6123992    -0.8195687
H           5.3479372    -0.7940780    -2.1522068
29
369_C12H16O_0-5-6-10 (-15,) energy =    -542.1350634
C           0.9249881     1.0417375     0.0888513
C          -0.5745560     1.3308630    -0.1071917
C          -1.3165746     0.1186055    -0.6910192
C          -1.0961882    -1.1362535     0.1676793
C           0.4016127    -1.4142105     0.3752466
C           1.1134268    -0.1948356     0.9721893
O           2.4910973    -0.5414715     1.2711213
C           5.7659300     1.0234788    -0.7918375
C           5.4029883     1.5345142     0.4561033
C           4.2905070     1.0271891     1.1284502
C           3.5340299    -0.0003969     0.5546749
C           3.9040602    -0.5238027    -0.6902389
C           5.0138930    -0.0070081    -1.3602313
H           1.3957739     0.8730863    -0.8879909
H           1.4271063     1.9074221     0.5367503
H          -1.0231261     1.5993013     0.8605399
H          -0.6978072     2.2045433    -0.7589156
H          -2.3882227     0.3369600    -0.7800205
H          -0.9497013    -0.0718380    -1.7103598
H          -1.5783505    -0.9952658     1.1463460
H          -1.5791613    -2.0068613    -0.2928591
H           0.5551690    -2.2773149     1.0333639
H           0.8694649    -1.6593717    -0.5889503
H           0.6705638     0.0155175     1.9560324
H           6.6322935     1.4198033    -1.3140621
H           5.9872465     2.3311527     0.9095695
H           3.9996619     1.4074793     2.1031880
H           3.3283924    -1.3413022    -1.1138851
H           5.2960368    -0.4177946    -2.3263295
29
369_C12H16O_0-5-6-10 (0,) energy =    -542.1349155
C           0.9554216     0.9792027     0.0117464
C          -0.5359115     1.3508812    -0.0813728
C          -1.3870677     0.1822184    -0.6005498
C          -1.1788720    -1.0770406     0.2541768
C           0.3107954    -1.4403756     0.3560251
C           1.1389553    -0.2654511     0.8843962
O           2.5073018    -0.7297249     1.0358836
C           5.8042031     1.1141695    -0.7391223
C           5.2647458     1.6333765     0.4400208
C           4.1485420     1.0367737     1.0274199
C           3.5584511    -0.0829435     0.4289214
C           4.1023850    -0.6096617    -0.7475779
C           5.2220739    -0.0109567    -1.3268525
H           1.3491623     0.7799415    -0.9940975
H           1.5303453     1.8204877     0.4137040
H          -0.8985503     1.6485150     0.9135631
H          -0.6539075     2.2283831    -0.7288844
H          -2.4476685     0.4632462    -0.6150608
H          -1.1055416    -0.0355665    -1.6412523
H          -1.5808212    -0.9006761     1.2629003
H          -1.7427557    -1.9216992    -0.1603792
H           0.4617203    -2.3075131     1.0093678
H           0.6972721    -1.7164741    -0.6353769
H           0.7951822    -0.0246489     1.9017608
H           6.6759004     1.5783302    -1.1919766
H           5.7182577     2.5024315     0.9098300
H           3.7331900     1.4194549     1.9552598
H           3.6453826    -1.4917196    -1.1862086
H           5.6407835    -0.4265247    -2.2398776
29
369_C12H16O_0-5-6-10 (15,) energy =    -542.1359997
C           0.9494845     0.9232341    -0.1129873
C          -0.5279591     1.3560590    -0.0907854
C          -1.4698045     0.2124045    -0.4960125
C          -1.2409436    -1.0289618     0.3791760
C           0.2344369    -1.4569896     0.3620847
C           1.1563630    -0.3076950     0.7747987
O           2.5020027    -0.8491431     0.7875665
C           5.8724384     1.1630809    -0.6290763
C           5.1951720     1.6504664     0.4910106
C           4.0546448     1.0022444     0.9661668
C           3.5738787    -0.1367522     0.3073322
C           4.2525466    -0.6305971    -0.8115112
C           5.3989785     0.0175447    -1.2723888
H           1.2488317     0.6785639    -1.1419309
H           1.5883226     1.7500970     0.2123109
H          -0.7896959     1.6979584     0.9215339
H          -0.6652117     2.2192421    -0.7534791
H          -2.5148319     0.5402107    -0.4285398
H          -1.2897645    -0.0485709    -1.5491893
H          -1.5450379    -0.8053877     1.4124145
H          -1.8739078    -1.8592605     0.0428065
H           0.4061003    -2.3106719     1.0278288
H           0.5210730    -1.7782580    -0.6490197
H           0.9187199    -0.0228542     1.8126134
H           6.7635537     1.6672449    -0.9924783
H           5.5616760     2.5348425     1.0060215
H           3.5397009     1.3622515     1.8523506
H           3.8732976    -1.5241279    -1.2980850
H           5.9221458    -0.3736979    -2.1411797
29
369_C12H16O_0-5-6-10 (30,) energy =    -542.1381037
C           0.9225438     0.8793660    -0.2595436
C          -0.5321091     1.3610220    -0.1107897
C          -1.5415077     0.2365737    -0.3865252
C          -1.2659531    -0.9861244     0.5015856
C           0.1869403    -1.4639805     0.3568750
C           1.1776542    -0.3343690     0.6409766
O           2.4925520    -0.9237263     0.5158957
C           5.9410703     1.1915569    -0.4993674
C           5.1438965     1.6439936     0.5540702
C           3.9753638     0.9648886     0.9014234
C           3.5878856    -0.1704827     0.1771169
C           4.3868105    -0.6285439    -0.8759756
C           5.5598821     0.0491513    -1.2068570
H           1.1142085     0.5918177    -1.3032916
H           1.6142138     1.6934751    -0.0245382
H          -0.6850239     1.7417967     0.9099576
H          -0.7076495     2.2078632    -0.7854527
H          -2.5651625     0.5992635    -0.2295705
H          -1.4719241    -0.0605502    -1.4431848
H          -1.4622690    -0.7237140     1.5516108
H          -1.9527642    -1.8044602     0.2532142
H           0.3960062    -2.3026652     1.0310321
H           0.3649808    -1.8243548    -0.6656081
H           1.0520165    -0.0143428     1.6892561
H           6.8523595     1.7209339    -0.7627851
H           5.4367374     2.5256488     1.1186005
H           3.3701752     1.3016980     1.7381866
H           4.0742038    -1.5171985    -1.4156981
H           6.1751531    -0.3150665    -2.0256385
29
369_C12H16O_0-5-6-10 (45,) energy =    -542.1405654
C           0.8641042     0.8559618    -0.3999656
C          -0.5591353     1.3705493    -0.1203418
C          -1.6080227     0.2579013    -0.2668118
C          -1.2646633    -0.9488587     0.6198656
C           0.1586861    -1.4590171     0.3464831
C           1.1900082    -0.3412236     0.5014162
O           2.4683496    -0.9502137     0.2314703
C           6.0060431     1.1786173    -0.3582743
C           5.0963352     1.6227238     0.6022154
C           3.8946622     0.9437275     0.8126585
C           3.5902397    -0.1869887     0.0428764
C           4.5026016    -0.6370627    -0.9191458
C           5.7038661     0.0417823    -1.1126826
H           0.9442425     0.5327395    -1.4477583
H           1.5923315     1.6601552    -0.2603720
H          -0.6039802     1.7780165     0.9006517
H          -0.7874613     2.2044136    -0.7953493
H          -2.6056350     0.6414391    -0.0184242
H          -1.6479390    -0.0647132    -1.3174842
H          -1.3523676    -0.6586999     1.6772668
H          -1.9857060    -1.7598709     0.4606488
H           0.4180338    -2.2841067     1.0199619
H           0.2293733    -1.8488390    -0.6781042
H           1.1813458    -0.0005937     1.5507821
H           6.9404396     1.7096528    -0.5156867
H           5.3227900     2.5004951     1.2022970
H           3.2039688     1.2828441     1.5785324
H           4.2504078    -1.5201225    -1.4981319
H           6.4050059    -0.3168995    -1.8619539
29
369_C12H16O_0-5-6-10 (60,) energy =    -542.1426523
C           0.7753076     0.8693806    -0.5184553
C          -0.6155067     1.3812430    -0.1057024
C          -1.6655641     0.2602958    -0.1406002
C          -1.2278921    -0.9396947     0.7134329
C           0.1645837    -1.4448718     0.3039105
C           1.1986375    -0.3199368     0.3535809
O           2.4414524    -0.9067928    -0.0670072
C           6.0778432     1.1329166    -0.2066715
C           5.0724458     1.6029104     0.6370326
C           3.8338091     0.9595739     0.7041534
C           3.5936008    -0.1686247    -0.0915851
C           4.6037108    -0.6447059    -0.9393294
C           5.8351368     0.0016020    -0.9916254
H           0.7537928     0.5327293    -1.5645103
H           1.5135698     1.6752661    -0.4600329
H          -0.5638464     1.7979790     0.9112727
H          -0.9147287     2.2072553    -0.7624405
H          -2.6361956     0.6382278     0.2044104
H          -1.8079833    -0.0684467    -1.1803994
H          -1.2119212    -0.6438592     1.7728191
H          -1.9566076    -1.7552763     0.6311549
H           0.4920002    -2.2660190     0.9520457
H           0.1358338    -1.8387329    -0.7211618
H           1.2985104     0.0161917     1.3985428
H           7.0376713     1.6391353    -0.2529701
H           5.2470551     2.4784459     1.2574062
H           3.0706924     1.3333414     1.3782016
H           4.3986470    -1.5232495    -1.5433157
H           6.6089141    -0.3788925    -1.6535523
29
369_C12H16O_0-5-6-10 (75,) energy =    -542.1437037
C           0.6583798     0.9173078    -0.6199265
C          -0.7043051     1.3871870    -0.0832556
C          -1.7169898     0.2329035    -0.0312038
C          -1.1666438    -0.9557297     0.7723009
C           0.1985947    -1.4169620     0.2373965
C           1.1984311    -0.2598917     0.2028389
O           2.4085926    -0.7903872    -0.3571493
C           6.1481999     1.0355305    -0.0570036
C           5.0773367     1.5786627     0.6492646
C           3.8018121     1.0103727     0.5738902
C           3.5944322    -0.1236854    -0.2224508
C           4.6717756    -0.6719704    -0.9358170
C           5.9346332    -0.0963377    -0.8508553
H           0.5543556     0.5797817    -1.6603328
H           1.3775654     1.7436234    -0.6257975
H          -0.5757538     1.8027702     0.9273870
H          -1.0863248     2.2048380    -0.7066650
H          -2.6643151     0.5776679     0.4020197
H          -1.9416705    -0.0962823    -1.0562250
H          -1.0646408    -0.6629746     1.8278150
H          -1.8745153    -1.7932666     0.7511294
H           0.6062439    -2.2302706     0.8489047
H           0.0902242    -1.8080263    -0.7834366
H           1.3912831     0.0661626     1.2361504
H           7.1346195     1.4854896     0.0068045
H           5.2248793     2.4585230     1.2705797
H           2.9884395     1.4553971     1.1351828
H           4.4902334    -1.5514599    -1.5459146
H           6.7581703    -0.5343162    -1.4091142
29
369_C12H16O_0-5-6-10 (90,) energy =    -542.1435069
C           0.5261008     0.9922148    -0.6879404
C          -0.8145819     1.3828149    -0.0433776
C          -1.7550628     0.1736486     0.0733569
C          -1.0792454    -0.9866465     0.8203060
C           0.2632306    -1.3685370     0.1758254
C           1.1955616    -0.1586091     0.0737860
O           2.3779722    -0.6060996    -0.6076572
C           6.2032233     0.9107753     0.0805013
C           5.1111296     1.5534698     0.6590111
C           3.8085651     1.0867040     0.4563450
C           3.5960749    -0.0503065    -0.3345695
C           4.6944076    -0.6975642    -0.9221762
C           5.9832098    -0.2185978    -0.7151519
H           0.3621064     0.6589175    -1.7217224
H           1.1991042     1.8563203    -0.7379752
H          -0.6313333     1.7976248     0.9591045
H          -1.2879374     2.1823759    -0.6263354
H          -2.6840817     0.4622533     0.5808473
H          -2.0388632    -0.1615401    -0.9349299
H          -0.9108228    -0.6938323     1.8672915
H          -1.7396815    -1.8619878     0.8469118
H           0.7605684    -2.1622989     0.7453012
H           0.0958376    -1.7592231    -0.8371908
H           1.4632795     0.1658071     1.0891315
H           7.2105717     1.2830205     0.2424737
H           5.2627747     2.4365231     1.2747540
H           2.9780843     1.6179882     0.9068279
H           4.5078995    -1.5760072    -1.5323003
H           6.8227183    -0.7333169    -1.1755536
29
369_C12H16O_0-5-6-10 (105,) energy =    -542.1427509
C           0.3937776     1.0675766    -0.7562583
C          -0.9358900     1.3627973    -0.0418963
C          -1.7750117     0.0880442     0.1342126
C          -0.9742054    -1.0098193     0.8511817
C           0.3544290    -1.2989880     0.1336037
C           1.1885142    -0.0248866    -0.0327028
O           2.3542668    -0.3770593    -0.7996588
C           6.2355577     0.7720334     0.2099445
C           5.1624686     1.5155337     0.6981321
C           3.8452780     1.1661398     0.3877923
C           3.5964738     0.0447344    -0.4149798
C           4.6744801    -0.7020580    -0.9128133
C           5.9808200    -0.3369358    -0.6029706
H           0.2010526     0.7205250    -1.7804606
H           1.0001464     1.9779062    -0.8408269
H          -0.7303517     1.8001374     0.9465809
H          -1.4991000     2.1187500    -0.6027707
H          -2.6943232     0.3122368     0.6896458
H          -2.0868672    -0.2787795    -0.8546158
H          -0.7693665    -0.6921954     1.8843987
H          -1.5653187    -1.9310616     0.9228671
H           0.9407160    -2.0475145     0.6795294
H           0.1593134    -1.7126778    -0.8651929
H           1.4983640     0.3275224     0.9596706
H           7.2558617     1.0529484     0.4542905
H           5.3433835     2.3872239     1.3220885
H           3.0286741     1.7772260     0.7568718
H           4.4600179    -1.5649326    -1.5357788
H           6.8056936    -0.9272986    -0.9937782
29
369_C12H16O_0-5-6-10 (120,) energy =    -542.1418888
C           0.3128187     0.7566162    -1.1479056
C          -1.0130481     1.2581074    -0.5517561
C          -1.7769172     0.1264132     0.1531426
C          -0.9036864    -0.5568650     1.2169995
C           0.4232892    -1.0572334     0.6219814
C           1.1773921     0.0715466    -0.0850143
O           2.3445474    -0.4664884    -0.7355703
C           6.2475092     0.6694506     0.2003117
C           5.2799760     0.6799554     1.2044638
C           3.9601592     0.3131466     0.9304534
C           3.5981775    -0.0562171    -0.3720519
C           4.5704754    -0.0732581    -1.3817645
C           5.8848407     0.2836568    -1.0934501
H           0.1131244     0.0303726    -1.9477501
H           0.8774332     1.5811845    -1.5991689
H          -0.8075928     2.0611209     0.1716883
H          -1.6305077     1.7042134    -1.3410917
H          -2.6956743     0.5154873     0.6096690
H          -2.0883148    -0.6194194    -0.5927835
H          -0.6942481     0.1586883     2.0261273
H          -1.4435885    -1.3936107     1.6769861
H           1.0601981    -1.4969347     1.3993752
H           0.2293257    -1.8496504    -0.1138459
H           1.4863349     0.8241439     0.6516108
H           7.2721970     0.9529972     0.4223587
H           5.5500425     0.9646779     2.2183187
H           3.2296068     0.2963709     1.7326729
H           4.2699328    -0.3671221    -2.3827093
H           6.6280610     0.2681769    -1.8866051
29
369_C12H16O_0-5-6-10 (135,) energy =    -542.1428540
C           0.1972939     0.7933045    -1.2154801
C          -1.1242782     1.2159684    -0.5527855
C          -1.7619672     0.0549670     0.2262164
C          -0.7812059    -0.5344230     1.2517203
C           0.5401936    -0.9571954     0.5878402
C           1.1684359     0.2041894    -0.1890330
O           2.3315009    -0.2444239    -0.9062624
C           6.2519126     0.5114752     0.3033350
C           5.2285808     0.5838168     1.2465738
C           3.8998034     0.3403286     0.8874653
C           3.5876744     0.0308937    -0.4431417
C           4.6162500    -0.0486522    -1.3939092
C           5.9351227     0.1878366    -1.0198350
H           0.0046259     0.0325575    -1.9843806
H           0.6742013     1.6423032    -1.7190068
H          -0.9358573     2.0532603     0.1355190
H          -1.8176913     1.5926393    -1.3146914
H          -2.6778249     0.3922729     0.7275568
H          -2.0624948    -0.7326718    -0.4801422
H          -0.5758633     0.2167129     2.0290350
H          -1.2318235    -1.3934442     1.7637861
H           1.2494376    -1.3340913     1.3348767
H           0.3589336    -1.7786419    -0.1187036
H           1.4599807     1.0008735     0.5085337
H           7.2816378     0.6998255     0.5928535
H           5.4586520     0.8233824     2.2817382
H           3.1259942     0.3764863     1.6465246
H           4.3531350    -0.2931538    -2.4184208
H           6.7205354     0.1253453    -1.7687661
29
369_C12H16O_0-5-6-10 (150,) energy =    -542.1435526
C           0.0999339     0.8520900    -1.2483966
C          -1.2268285     1.1648805    -0.5373758
C          -1.7340926    -0.0405974     0.2693612
C          -0.6667195    -0.5414523     1.2544925
C           0.6576731    -0.8537811     0.5375014
C           1.1567800     0.3590274    -0.2574922
O           2.3228976     0.0289183    -1.0272933
C           6.2379322     0.3352020     0.3815593
C           5.1857796     0.5317001     1.2729427
C           3.8555658     0.4360940     0.8519340
C           3.5736431     0.1450902    -0.4893961
C           4.6321646    -0.0571085    -1.3890810
C           5.9494788     0.0371242    -0.9545079
H          -0.0545994     0.0705453    -2.0048564
H           0.4814921     1.7345932    -1.7748601
H          -1.0846219     2.0199334     0.1400466
H          -1.9775986     1.4760018    -1.2740171
H          -2.6538328     0.2222874     0.8068361
H          -1.9963415    -0.8542707    -0.4225638
H          -0.4942362     0.2262571     2.0235597
H          -1.0221309    -1.4340851     1.7837079
H           1.4210779    -1.1774559     1.2545817
H           0.5148278    -1.6831372    -0.1686130
H           1.3994614     1.1817932     0.4301720
H           7.2673632     0.4096040     0.7196208
H           5.3913477     0.7581521     2.3162017
H           3.0591103     0.5801412     1.5728200
H           4.3919258    -0.2823766    -2.4235991
H           6.7570895    -0.1200534    -1.6649680
29
369_C12H16O_0-5-6-10 (165,) energy =    -542.1436736
C           0.0305231     0.9244619    -1.2540242
C          -1.3081495     1.1055348    -0.5208200
C          -1.6886749    -0.1495502     0.2797002
C          -0.5605881    -0.5617444     1.2375859
C           0.7736607    -0.7392910     0.4934018
C           1.1462168     0.5308081    -0.2838506
O           2.3217124     0.3384371    -1.0847604
C           6.2034266     0.1477491     0.4322543
C           5.1646345     0.5057258     1.2886853
C           3.8448639     0.5734170     0.8315580
C           3.5598224     0.2777777    -0.5081119
C           4.6047335    -0.0838964    -1.3726049
C           5.9124461    -0.1461217    -0.9040639
H          -0.0588946     0.1338646    -2.0113843
H           0.3158755     1.8414139    -1.7826825
H          -1.2357512     1.9636539     0.1637326
H          -2.0953238     1.3526277    -1.2435503
H          -2.6174731     0.0231326     0.8378024
H          -1.8899298    -0.9760372    -0.4173728
H          -0.4457246     0.2079599     2.0154127
H          -0.8204287    -1.4909670     1.7592872
H           1.5722961    -1.0106078     1.1924006
H           0.6920925    -1.5621110    -0.2300596
H           1.3160407     1.3627946     0.4160928
H           7.2249236     0.0963734     0.7975698
H           5.3727440     0.7371518     2.3303530
H           3.0577238     0.8564428     1.5208320
H           4.3625945    -0.3074098    -2.4070734
H           6.7101346    -0.4270369    -1.5870446
29
369_C12H16O_0-5-6-10 (180,) energy =    -542.1424921
C          -0.0060050     0.9809693    -1.2505057
C          -1.3654259     1.0259880    -0.5355656
C          -1.6309122    -0.2665950     0.2509834
C          -0.4748795    -0.5764836     1.2136654
C           0.8777695    -0.6156239     0.4821801
C           1.1343498     0.6988556    -0.2695314
O           2.3283476     0.6541692    -1.0692794
C           6.1520483    -0.0316986     0.4537977
C           5.1680884     0.4787676     1.2994042
C           3.8701901     0.7101267     0.8363567
C           3.5482891     0.4176639    -0.4956718
C           4.5355706    -0.0933084    -1.3498220
C           5.8259946    -0.3122318    -0.8765279
H          -0.0042085     0.1865119    -2.0087429
H           0.1916843     1.9227722    -1.7759107
H          -1.3866091     1.8819103     0.1551257
H          -2.1629082     1.2003308    -1.2681336
H          -2.5758683    -0.1889915     0.8032939
H          -1.7467657    -1.1021578    -0.4546000
H          -0.4417755     0.1921692     2.0002543
H          -0.6460933    -1.5322184     1.7239902
H           1.6872607    -0.8254768     1.1885574
H           0.8807450    -1.4302379    -0.2553405
H           1.2085238     1.5308380     0.4484138
H           7.1580238    -0.2082026     0.8233790
H           5.4066107     0.7071103     2.3351638
H           3.1244841     1.1221104     1.5077827
H           4.2659996    -0.3074803    -2.3794567
H           6.5808489    -0.7088875    -1.5506949
