20
084_C9H10O_0-2-10-8 (-165,) energy =    -424.1826009
C           1.6218007    -1.2721380    -0.8963899
H           2.1056318    -1.3184230    -1.8664622
C           2.2477194    -0.6858383     0.1377677
H           1.7258770    -0.6802582     1.0967654
C           6.1680213     1.0454082     0.5414932
H           7.1569333     1.4806431     0.6551304
C           5.3970596     0.7265558     1.6587039
H           5.7749103     0.9079659     2.6605677
C           4.1323416     0.1724300     1.4782031
H           3.5290812    -0.0739848     2.3489180
C           3.5880065    -0.0880344     0.2069141
C           4.3945308     0.2423749    -0.9075557
O           3.9001186     0.0049753    -2.1637227
H           4.5529884     0.3086160    -2.8137124
C           5.6625708     0.8030509    -0.7348494
H           6.2566537     1.0495898    -1.6141210
C           0.2544366    -1.8830031    -0.7988295
H           0.2759456    -2.9495169    -1.0636086
H          -0.4460050    -1.4050453    -1.4981532
H          -0.1610970    -1.7930384     0.2109606
20
084_C9H10O_0-2-10-8 (-150,) energy =    -424.1813457
C           1.6911536    -1.5813331    -0.4188799
H           2.3898551    -2.3985006    -0.2627393
C           2.1403249    -0.3167998    -0.4227002
H           1.4045357     0.4793113    -0.5533717
C           6.0507606     1.2440542     0.4703859
H           7.0341581     1.6439924     0.7014503
C           4.9009760     1.9911355     0.7239033
H           4.9724869     2.9837097     1.1588010
C           3.6548207     1.4519546     0.4120654
H           2.7562762     2.0337221     0.6046238
C           3.5017868     0.1728138    -0.1507055
C           4.6828980    -0.5665646    -0.3884522
O           4.5669192    -1.8205027    -0.9304477
H           5.4578807    -2.1726370    -1.0822110
C           5.9369558    -0.0294162    -0.0854411
H           6.8299756    -0.6198990    -0.2869243
C           0.2550949    -1.9595144    -0.6342755
H          -0.1393581    -2.5248419     0.2216094
H           0.1418320    -2.6093295    -1.5134077
H          -0.3795375    -1.0784966    -0.7804153
20
084_C9H10O_0-2-10-8 (-135,) energy =    -424.1793839
C           1.6828189    -1.5446761    -0.3265348
H           2.3579941    -2.3202519     0.0294871
C           2.1538983    -0.3060986    -0.5240816
H           1.4515103     0.4646174    -0.8483242
C           6.0437379     1.2179340     0.5146042
H           7.0235194     1.6036541     0.7826568
C           4.8909190     1.9515367     0.7930103
H           4.9569360     2.9169414     1.2861140
C           3.6483945     1.4323705     0.4330621
H           2.7467273     2.0020450     0.6461150
C           3.5085095     0.1897578    -0.2054351
C           4.6890054    -0.5402682    -0.4636810
O           4.5734862    -1.7629644    -1.0730921
H           5.4647524    -2.1122099    -1.2291514
C           5.9395809    -0.0227096    -0.1128074
H           6.8360242    -0.6012862    -0.3325605
C           0.2657915    -1.9624311    -0.5887298
H          -0.2046713    -2.3640014     0.3194483
H           0.2195144    -2.7610730    -1.3421249
H          -0.3436188    -1.1246959    -0.9450039
20
084_C9H10O_0-2-10-8 (-120,) energy =    -424.1772043
C           1.6461673    -1.4944786    -0.2280826
H           2.2675552    -2.1843807     0.3423967
C           2.1646815    -0.3218690    -0.6090621
H           1.5270316     0.3774829    -1.1541120
C           6.0277232     1.1906555     0.5490569
H           7.0024447     1.5689687     0.8450459
C           4.8675517     1.8984132     0.8623332
H           4.9235442     2.8339829     1.4110926
C           3.6302595     1.3899784     0.4676731
H           2.7213564     1.9355607     0.7103645
C           3.5092293     0.1861416    -0.2413374
C           4.6940679    -0.5187940    -0.5361001
O           4.5859350    -1.7034015    -1.2168621
H           5.4789250    -2.0465385    -1.3762722
C           5.9395591    -0.0130995    -0.1482444
H           6.8427068    -0.5699740    -0.3947679
C           0.2566171    -1.9599992    -0.5514306
H          -0.3116178    -2.1816031     0.3623667
H           0.2759307    -2.8875982    -1.1399108
H          -0.2978185    -1.2076643    -1.1228552
20
084_C9H10O_0-2-10-8 (-105,) energy =    -424.1757125
C           1.5882377    -1.4255899    -0.1315134
H           2.1079537    -1.9830036     0.6485984
C           2.1921231    -0.3622136    -0.6693372
H           1.6707329     0.2043572    -1.4441622
C           6.0257807     1.1710070     0.5664062
H           6.9951851     1.5525956     0.8756594
C           4.8547584     1.8343058     0.9316493
H           4.8974865     2.7379504     1.5326275
C           3.6231524     1.3221504     0.5210268
H           2.7048823     1.8304911     0.8045997
C           3.5232913     0.1571313    -0.2503966
C           4.7180740    -0.4975940    -0.6073072
O           4.6211473    -1.6349347    -1.3648855
H           5.5170639    -1.9585672    -1.5471975
C           5.9575482     0.0090764    -0.2007280
H           6.8700000    -0.5117104    -0.4882652
C           0.2341957    -1.9381034    -0.5288239
H          -0.4514739    -1.9602381     0.3291455
H           0.2967557    -2.9677244    -0.9066126
H          -0.2177080    -1.3174356    -1.3100483
20
084_C9H10O_0-2-10-8 (-90,) energy =    -424.1758183
C           1.5217823    -1.3463835    -0.0480316
H           1.9044487    -1.7324370     0.8977305
C           2.2377052    -0.4291799    -0.7039902
H           1.8702193    -0.0579183    -1.6633683
C           6.0301620     1.1690782     0.5716216
H           6.9918371     1.5686108     0.8824035
C           4.8453410     1.7676195     0.9972007
H           4.8697025     2.6406259     1.6428447
C           3.6225189     1.2346119     0.5833669
H           2.6927358     1.6944382     0.9080162
C           3.5488078     0.1052492    -0.2403233
C           4.7578259    -0.4745740    -0.6705103
O           4.6755432    -1.5623944    -1.4988699
H           5.5750230    -1.8479181    -1.7227135
C           5.9874360     0.0508477    -0.2609875
H           6.9112140    -0.4180446    -0.5973753
C           0.2063949    -1.9032669    -0.5109368
H          -0.5859238    -1.7239050     0.2285131
H           0.2656940    -2.9913206    -0.6493899
H          -0.1070357    -1.4572991    -1.4609177
20
084_C9H10O_0-2-10-8 (-75,) energy =    -424.1774549
C           1.4637748    -1.2693821     0.0042158
H           1.7239749    -1.4700672     1.0444982
C           2.2886223    -0.5157297    -0.7298207
H           2.0599679    -0.3575825    -1.7856387
C           6.0193086     1.1842022     0.5809635
H           6.9679131     1.6109599     0.8956262
C           4.8170159     1.7054020     1.0555251
H           4.8144452     2.5484865     1.7402129
C           3.6110599     1.1405282     0.6333877
H           2.6673124     1.5466492     0.9874551
C           3.5730578     0.0463488    -0.2389632
C           4.7994224    -0.4472237    -0.7261295
O           4.7439196    -1.4899334    -1.6131495
H           5.6480895    -1.7196212    -1.8784427
C           6.0112687     0.1102843    -0.3103126
H           6.9484356    -0.2972746    -0.6869992
C           0.1770535    -1.8664501    -0.4879952
H          -0.6802772    -1.5073273     0.0977393
H           0.1867657    -2.9604531    -0.3903691
H          -0.0033936    -1.6211139    -1.5400049
20
084_C9H10O_0-2-10-8 (-60,) energy =    -424.1798074
C           1.4181214    -1.1944580     0.0313950
H           1.5828755    -1.2149592     1.1097339
C           2.3385398    -0.6138157    -0.7479733
H           2.2140741    -0.6511767    -1.8309598
C           6.0062991     1.1890624     0.5867070
H           6.9402101     1.6425724     0.9076124
C           4.7897835     1.6363070     1.0995963
H           4.7614866     2.4497864     1.8186724
C           3.6026306     1.0419313     0.6666878
H           2.6470652     1.3977729     1.0423415
C           3.5975028    -0.0158632    -0.2518591
C           4.8375293    -0.4316069    -0.7781392
O           4.8128173    -1.4367685    -1.7095344
H           5.7207097    -1.6116004    -2.0023224
C           6.0302483     0.1579833    -0.3538545
H           6.9778478    -0.1914534    -0.7614982
C           0.1472137    -1.8234726    -0.4611053
H          -0.7356886    -1.3361432    -0.0248376
H           0.0929415    -2.8825782    -0.1745358
H           0.0644841    -1.7620651    -1.5514278
20
084_C9H10O_0-2-10-8 (-45,) energy =    -424.1818938
C           1.3742717    -1.1174201     0.0507998
H           1.4542459    -0.9727185     1.1292206
C           2.3804570    -0.7082269    -0.7340269
H           2.3339479    -0.9162201    -1.8025861
C           5.9990707     1.1918554     0.5926621
H           6.9213649     1.6687526     0.9130099
C           4.7765970     1.5713079     1.1462496
H           4.7326583     2.3555067     1.8964143
C           3.6042547     0.9515020     0.7125764
H           2.6446948     1.2635627     1.1157600
C           3.6174032    -0.0678325    -0.2505162
C           4.8631907    -0.4172257    -0.8126102
O           4.8604509    -1.3916059    -1.7771019
H           5.7674021    -1.5139536    -2.0977625
C           6.0415090     0.2009568    -0.3889327
H           6.9926339    -0.0967890    -0.8281854
C           0.1157702    -1.7714324    -0.4396881
H          -0.7722835    -1.1835673    -0.1685273
H          -0.0180530    -2.7641570     0.0115168
H           0.1228720    -1.8910108    -1.5282797
20
084_C9H10O_0-2-10-8 (-30,) energy =    -424.1830281
C           1.3285709    -1.0522825     0.0506497
H           1.3186824    -0.7484369     1.0981647
C           2.4143168    -0.8021179    -0.6958330
H           2.4368000    -1.1644927    -1.7220206
C           5.9940167     1.2052907     0.5811570
H           6.9075618     1.7061511     0.8895829
C           4.7748974     1.5208775     1.1820808
H           4.7250573     2.2779785     1.9592386
C           3.6139877     0.8726817     0.7639707
H           2.6597792     1.1431212     1.2073419
C           3.6299874    -0.1111699    -0.2373499
C           4.8733611    -0.4012346    -0.8398313
O           4.8839791    -1.3503941    -1.8295948
H           5.7865449    -1.4286137    -2.1750147
C           6.0409143     0.2479324    -0.4317578
H           6.9880322    -0.0019846    -0.9079121
C           0.0934434    -1.7447595    -0.4457197
H          -0.7922228    -1.1013153    -0.3475748
H          -0.1159559    -2.6527844     0.1364992
H           0.1884735    -2.0305196    -1.4986608
20
084_C9H10O_0-2-10-8 (-15,) energy =    -424.1832358
C           1.2849169    -0.9803883     0.0313286
H           1.1787962    -0.5069614     1.0078284
C           2.4448485    -0.8809974    -0.6358742
H           2.5340935    -1.3944219    -1.5905131
C           6.0015084     1.2196754     0.5625478
H           6.9101635     1.7412304     0.8502330
C           4.7966281     1.4761942     1.2190954
H           4.7539133     2.2053970     2.0228957
C           3.6427386     0.8007551     0.8295958
H           2.7043494     1.0247019     1.3285235
C           3.6455181    -0.1489747    -0.2058041
C           4.8766052    -0.3851080    -0.8579196
O           4.8876864    -1.3079671    -1.8725914
H           5.7823156    -1.3504807    -2.2435368
C           6.0380031     0.2916333    -0.4764252
H           6.9728799     0.0850688    -0.9956552
C           0.0818282    -1.7266521    -0.4658120
H          -0.7872628    -1.0613750    -0.5672363
H          -0.2144411    -2.5195673     0.2350595
H           0.2697495    -2.1880733    -1.4410781
20
084_C9H10O_0-2-10-8 (0,) energy =    -424.1831512
C           1.2398778    -0.9109232    -0.0175379
H           1.0470208    -0.2550669     0.8317124
C           2.4609112    -0.9547184    -0.5727442
H           2.6137211    -1.6211957    -1.4179742
C           5.9891671     1.2385244     0.5470876
H           6.8908207     1.7826774     0.8139789
C           4.8051834     1.4302954     1.2616801
H           4.7727625     2.1272621     2.0940267
C           3.6615641     0.7224635     0.9024566
H           2.7472006     0.8807100     1.4665171
C           3.6495502    -0.1909180    -0.1657309
C           4.8613751    -0.3657661    -0.8720780
O           4.8639976    -1.2541959    -1.9172114
H           5.7516465    -1.2728907    -2.3062419
C           6.0138990     0.3408205    -0.5179430
H           6.9320515     0.1834630    -1.0822577
C           0.0686606    -1.7224559    -0.4876063
H          -0.7682967    -1.0778449    -0.7909430
H          -0.3141441    -2.3721679     0.3119970
H           0.3349604    -2.3557734    -1.3404552
20
084_C9H10O_0-2-10-8 (15,) energy =    -424.1832356
C           1.2368790    -0.8432077    -0.0855806
H           1.0093653    -0.0227869     0.5956545
C           2.4955799    -1.0248744    -0.5135431
H           2.6867512    -1.8281679    -1.2214014
C           5.9878107     1.2589754     0.5291267
H           6.8802437     1.8266836     0.7775371
C           4.8290391     1.3842655     1.2973344
H           4.8091763     2.0483638     2.1565391
C           3.6985986     0.6421447     0.9645527
H           2.8093521     0.7263018     1.5824601
C           3.6749666    -0.2323517    -0.1348717
C           4.8627514    -0.3452391    -0.8918504
O           4.8498303    -1.1996382    -1.9647827
H           5.7287872    -1.1975097    -2.3736860
C           6.0027928     0.3922400    -0.5620238
H           6.9022080     0.2866230    -1.1671361
C           0.0714970    -1.6971800    -0.4907714
H          -0.7136016    -1.0989107    -0.9738980
H          -0.3955606    -2.1757557     0.3815939
H           0.3743029    -2.4862453    -1.1872298
20
084_C9H10O_0-2-10-8 (30,) energy =    -424.1830284
C           1.2411115    -0.8027931    -0.1609185
H           1.0088623     0.1327222     0.3496064
C           2.5183947    -1.0980879    -0.4438732
H           2.7321517    -2.0047290    -1.0071206
C           5.9696745     1.2741371     0.5223544
H           6.8517445     1.8643426     0.7550363
C           4.8387411     1.3383380     1.3371178
H           4.8318050     1.9730126     2.2184848
C           3.7218093     0.5651310     1.0252788
H           2.8540406     0.5881706     1.6785056
C           3.6859361    -0.2700751    -0.1025713
C           4.8481230    -0.3286815    -0.9020293
O           4.8174653    -1.1580836    -1.9937314
H           5.6816943    -1.1263881    -2.4321111
C           5.9743959     0.4377447    -0.5935195
H           6.8542354     0.3797773    -1.2328687
C           0.0683377    -1.6725456    -0.5065348
H          -0.6472558    -1.1405094    -1.1486018
H          -0.4855509    -1.9729495     0.3940026
H           0.3827531    -2.5822374    -1.0289992
20
084_C9H10O_0-2-10-8 (45,) energy =    -424.1818936
C           1.2556356    -0.7796592    -0.2362949
H           1.0298520     0.2320195     0.1041313
C           2.5369823    -1.1537777    -0.3547975
H           2.7638098    -2.1384678    -0.7624826
C           5.9653837     1.2878110     0.5109098
H           6.8421673     1.8942912     0.7209319
C           4.8714397     1.3017258     1.3757555
H           4.8887385     1.9113534     2.2744823
C           3.7603862     0.5075174     1.0904939
H           2.9173872     0.4884969     1.7758262
C           3.6956161    -0.2906663    -0.0608396
C           4.8239813    -0.3060505    -0.9073340
O           4.7633123    -1.1152047    -2.0124538
H           5.6064345    -1.0557046    -2.4878039
C           5.9428412     0.4813602    -0.6276592
H           6.7957986     0.4628839    -1.3046724
C           0.0756698    -1.6566197    -0.5372626
H          -0.5640588    -1.2102917    -1.3109060
H          -0.5577872    -1.7932621     0.3503261
H           0.3890714    -2.6467185    -0.8849169
20
084_C9H10O_0-2-10-8 (60,) energy =    -424.1798074
C           1.2703377    -0.7716466    -0.3193937
H           1.0541457     0.2857458    -0.1594300
C           2.5413032    -1.1862969    -0.2522897
H           2.7701933    -2.2281720    -0.4800691
C           5.9727074     1.2915301     0.5022969
H           6.8504389     1.9054438     0.6853977
C           4.9240762     1.2652283     1.4203211
H           4.9773843     1.8507080     2.3335551
C           3.8094777     0.4634112     1.1659114
H           2.9964096     0.4172572     1.8853698
C           3.6986894    -0.2987325    -0.0043590
C           4.7840591    -0.2783572    -0.9037848
O           4.6799579    -1.0640642    -2.0219353
H           5.4953483    -0.9771890    -2.5397668
C           5.9044941     0.5180852    -0.6576531
H           6.7234693     0.5313171    -1.3755344
C           0.0902097    -1.6587585    -0.5906357
H          -0.4584280    -1.3261437    -1.4822868
H          -0.6257773    -1.6379313     0.2426350
H           0.3966807    -2.6982689    -0.7484604
20
084_C9H10O_0-2-10-8 (75,) energy =    -424.1774551
C           1.2906422    -0.7766662    -0.4155985
H           1.1034418     0.2971819    -0.4601499
C           2.5293199    -1.2016167    -0.1467081
H           2.7335277    -2.2741436    -0.1543728
C           5.9832273     1.2852107     0.4943664
H           6.8652713     1.9009885     0.6485815
C           4.9865050     1.2220959     1.4664101
H           5.0832454     1.7824680     2.3917371
C           3.8636191     0.4208703     1.2455051
H           3.0857825     0.3542959     2.0014662
C           3.6969034    -0.3071949     0.0615081
C           4.7291041    -0.2486482    -0.8955972
O           4.5716477    -1.0009592    -2.0297727
H           5.3532029    -0.8820145    -2.5916426
C           5.8563523     0.5495597    -0.6847961
H           6.6350395     0.5927050    -1.4451110
C           0.1078565    -1.6698810    -0.6556555
H          -0.3307905    -1.4864478    -1.6458170
H          -0.6882295    -1.4852444     0.0786576
H           0.3848456    -2.7279052    -0.5978327
20
084_C9H10O_0-2-10-8 (90,) energy =    -424.1758183
C           1.3281732    -0.7963098    -0.5166145
H           1.2067477     0.2522480    -0.7917850
C           2.5095842    -1.2038225    -0.0451393
H           2.6429227    -2.2579347     0.2085429
C           5.9901942     1.2819143     0.4751583
H           6.8747077     1.9010332     0.5990851
C           5.0535853     1.1740373     1.5019494
H           5.1977236     1.7061371     2.4377294
C           3.9254076     0.3716722     1.3173576
H           3.1896586     0.2792279     2.1120036
C           3.6986522    -0.3220856     0.1229388
C           4.6648383    -0.2107935    -0.8954322
O           4.4479415    -0.9155519    -2.0498036
H           5.1910823    -0.7561528    -2.6523209
C           5.7974095     0.5908058    -0.7209639
H           6.5282989     0.6708874    -1.5245632
C           0.1266181    -1.6771378    -0.7038425
H          -0.1909967    -1.6924941    -1.7552376
H          -0.7309563    -1.3120962    -0.1224332
H           0.3321844    -2.7081803    -0.3967864
20
084_C9H10O_0-2-10-8 (105,) energy =    -424.1757125
C           1.3826533    -0.8414138    -0.6291311
H           1.3684029     0.1207858    -1.1423155
C           2.4843445    -1.1947708     0.0387885
H           2.4989074    -2.1534930     0.5620894
C           5.9888141     1.2752934     0.4772288
H           6.8736977     1.8974225     0.5817691
C           5.1083233     1.1117413     1.5461757
H           5.2944884     1.6071600     2.4945831
C           3.9794320     0.3072677     1.3843317
H           3.2854187     0.1773747     2.2110824
C           3.6995336    -0.3453591     0.1768259
C           4.6011732    -0.1658014    -0.8901144
O           4.3298627    -0.8068391    -2.0700825
H           5.0419812    -0.6073839    -2.6975752
C           5.7361041     0.6383920    -0.7367431
H           6.4216265     0.7634453    -1.5739321
C           0.1432472    -1.6801666    -0.7487990
H          -0.0718512    -1.9195707    -1.7991207
H          -0.7369228    -1.1487796    -0.3619237
H           0.2406577    -2.6228094    -0.1995334
20
084_C9H10O_0-2-10-8 (120,) energy =    -424.1772043
C           1.4379023    -0.9026670    -0.7322017
H           1.5292129    -0.0839932    -1.4456231
C           2.4564057    -1.1530096     0.0978558
H           2.3463693    -1.9552202     0.8307407
C           6.0035879     1.2584307     0.4909534
H           6.8961256     1.8706338     0.5878888
C           5.1662263     1.0474719     1.5861170
H           5.3929260     1.4972039     2.5483598
C           4.0286578     0.2552320     1.4329875
H           3.3701577     0.0881773     2.2821840
C           3.6954545    -0.3447565     0.2100575
C           4.5492675    -0.1075945    -0.8864912
O           4.2254077    -0.6782396    -2.0897799
H           4.9201603    -0.4571946    -2.7293450
C           5.6950998     0.6817212    -0.7400095
H           6.3455615     0.8439899    -1.5985708
C           0.1616622    -1.6906597    -0.7811129
H           0.0160933    -2.1489960    -1.7689690
H          -0.7106972    -1.0467488    -0.6039338
H           0.1524065    -2.4898836    -0.0320547
20
084_C9H10O_0-2-10-8 (135,) energy =    -424.1793839
C           1.4824320    -0.9752838    -0.8115744
H           1.6571757    -0.3266514    -1.6676537
C           2.4255544    -1.0801270     0.1342286
H           2.2150970    -1.7094345     1.0015032
C           6.0389862     1.2305387     0.5034586
H           6.9477663     1.8183225     0.5995474
C           5.2291111     0.9881234     1.6125175
H           5.4938572     1.3879400     2.5869775
C           4.0716928     0.2267531     1.4586941
H           3.4382156     0.0331589     2.3213369
C           3.6845846    -0.3122547     0.2213781
C           4.5132728    -0.0410365    -0.8889896
O           4.1454334    -0.5456248    -2.1095622
H           4.8352843    -0.3216437    -2.7534728
C           5.6799922     0.7151688    -0.7412133
H           6.3077266     0.9013375    -1.6118130
C           0.1807574    -1.7213264    -0.7943792
H           0.0807867    -2.3671488    -1.6778349
H          -0.6735204    -1.0305803    -0.8158427
H           0.0867116    -2.3502998     0.0976187
20
084_C9H10O_0-2-10-8 (150,) energy =    -424.1813457
C           1.5056020    -1.0541597    -0.8679870
H           1.7496097    -0.5772770    -1.8131692
C           2.3769083    -0.9910180     0.1506651
H           2.0845190    -1.4568100     1.0939571
C           6.0693174     1.1903244     0.5156967
H           6.9986112     1.7442385     0.6157193
C           5.2752529     0.9250266     1.6308130
H           5.5739336     1.2710769     2.6159485
C           4.0915041     0.2082432     1.4701200
H           3.4719658    -0.0040377     2.3384651
C           3.6545998    -0.2629990     0.2197693
C           4.4736286     0.0281057    -0.8949845
O           4.0716901    -0.4119810    -2.1296262
H           4.7587888    -0.1839204    -2.7751699
C           5.6663076     0.7399309    -0.7406275
H           6.2806339     0.9426073    -1.6171403
C           0.1873420    -1.7675905    -0.7980722
H           0.1266395    -2.5669730    -1.5499128
H          -0.6464373    -1.0826179    -1.0062838
H           0.0198877    -2.2161536     0.1873503
20
084_C9H10O_0-2-10-8 (165,) energy =    -424.1826009
C           1.5495990    -1.1224517    -0.9063535
H           1.8653367    -0.8204931    -1.8995323
C           2.3437119    -0.8846499     0.1509250
H           1.9730423    -1.1923337     1.1307002
C           6.1177664     1.1496395     0.5345861
H           7.0680338     1.6649486     0.6429285
C           5.3304515     0.8646330     1.6495362
H           5.6556926     1.1550272     2.6441723
C           4.1189368     0.2002666     1.4763302
H           3.5054591    -0.0250141     2.3456292
C           3.6421691    -0.2001575     0.2143219
C           4.4605162     0.1057942    -0.8985095
O           4.0320743    -0.2683014    -2.1456034
H           4.7094343    -0.0154105    -2.7922506
C           5.6796372     0.7678379    -0.7325123
H           6.2879480     0.9849365    -1.6098159
C           0.2154964    -1.8022298    -0.8042321
H           0.1881864    -2.7187268    -1.4103790
H          -0.5893113    -1.1568602    -1.1834318
H          -0.0260390    -2.0728130     0.2296366
20
084_C9H10O_0-2-10-8 (180,) energy =    -424.1830067
C           1.5758622    -1.2022292    -0.9117462
H           1.9709830    -1.0774072    -1.9139520
C           2.2900334    -0.7875393     0.1486563
H           1.8449021    -0.9375540     1.1341937
C           6.1405844     1.0967694     0.5386935
H           7.1109175     1.5724962     0.6499549
C           5.3623071     0.7947641     1.6555124
H           5.7151573     1.0309287     2.6550679
C           4.1233214     0.1850645     1.4777088
H           3.5158608    -0.0507831     2.3484040
C           3.6094085    -0.1466591     0.2097206
C           4.4220386     0.1719548    -0.9043070
O           3.9609188    -0.1331742    -2.1583265
H           4.6278500     0.1411570    -2.8070899
C           5.6663606     0.7839485    -0.7341897
H           6.2663428     1.0157550    -1.6134753
C           0.2252430    -1.8468605    -0.7971932
H           0.2268665    -2.8544256    -1.2364960
H          -0.5368433    -1.2731860    -1.3433323
H          -0.0988037    -1.9329603     0.2459088
