22
102_C9H9N3S_11-0-18-17 (-165,) energy =    -910.8058081
N           2.1047934    -0.5237902    -0.3836629
C           1.2288757     0.4109934     0.3414952
H           1.8293328     1.2381249     0.7204197
H           0.7449489    -0.0839020     1.1904651
H           0.4773728     0.7747648    -0.3563148
C           5.8161995    -1.2140095     1.3477552
H           6.7579528    -1.3736345     1.8625644
C           5.6707535    -1.4761960    -0.0168781
H           6.5120109    -1.8321518    -0.6055352
C           4.4469359    -1.2521210    -0.6336163
H           4.3331997    -1.4012878    -1.7000442
C           3.3754486    -0.7873455     0.1551461
N           3.5149500    -0.5072359     1.4583173
C           4.7084012    -0.7136123     2.0256905
H           4.7730596    -0.4652770     3.0839976
C           0.0677291    -1.7199659    -3.0135882
H          -0.7824987    -1.4717874    -3.6392755
N           0.5039052    -0.7906322    -2.0992349
C           1.5427056    -1.2253044    -1.4370986
S           2.0549199    -2.8686658    -1.9073058
C           0.7614514    -2.8876498    -3.0765941
H           0.6281201    -3.7256216    -3.7461652
22
102_C9H9N3S_11-0-18-17 (-150,) energy =    -910.8054554
N           2.0682836    -0.5924486    -0.3143604
C           1.1926933     0.3291512     0.4264748
H           1.7475946     1.2329958     0.6846252
H           0.8386358    -0.1331873     1.3536215
H           0.3532205     0.5807841    -0.2186608
C           5.8461894    -1.1694388     1.3056691
H           6.8082553    -1.2948218     1.7915118
C           5.6503094    -1.5075681    -0.0365831
H           6.4709468    -1.8929294    -0.6358467
C           4.4032103    -1.3264402    -0.6177956
H           4.2479267    -1.5440055    -1.6670053
C           3.3591007    -0.8204167     0.1842673
N           3.5450438    -0.4714229     1.4651234
C           4.7606170    -0.6418177     1.9973934
H           4.8622182    -0.3382956     3.0383304
C           0.1919666    -1.6023359    -3.1383885
H          -0.5373229    -1.2691292    -3.8683448
N           0.6501063    -0.7007155    -2.2072117
C           1.5348526    -1.2430928    -1.4153972
S           1.8591862    -2.9611756    -1.7736227
C           0.7235766    -2.8543604    -3.0885978
H           0.5565040    -3.6903451    -3.7533517
22
102_C9H9N3S_11-0-18-17 (-135,) energy =    -910.8046035
N           2.0084469    -0.6845503    -0.2550439
C           1.1229212     0.2407012     0.4682433
H           1.6222685     1.2013107     0.6158708
H           0.8639082    -0.1651435     1.4508468
H           0.2265847     0.3836450    -0.1329575
C           5.8494337    -1.0625162     1.2679403
H           6.8297671    -1.1322596     1.7276671
C           5.6157216    -1.5061097    -0.0374916
H           6.4235956    -1.9231719    -0.6329782
C           4.3469584    -1.3946598    -0.5873022
H           4.1598570    -1.7017434    -1.6086192
C           3.3201102    -0.8445649     0.2091816
N           3.5400107    -0.3992146     1.4544030
C           4.7758110    -0.5075070     1.9560801
H           4.9044060    -0.1270607     2.9684491
C           0.3384414    -1.5758250    -3.2487183
H          -0.2595260    -1.1926071    -4.0679388
N           0.7958789    -0.6950300    -2.2971590
C           1.5127424    -1.3038044    -1.3932035
S           1.6639608    -3.0604666    -1.6604756
C           0.7105265    -2.8783028    -3.1019606
H           0.5171245    -3.7156660    -3.7580650
22
102_C9H9N3S_11-0-18-17 (-120,) energy =    -910.8035016
N           1.9878331    -0.7986496    -0.2110386
C           1.1187990     0.1395039     0.5153138
H           1.5365733     1.1509712     0.4990485
H           1.0180378    -0.1739470     1.5570838
H           0.1451103     0.1434045     0.0267017
C           5.9034964    -1.0587897     1.1359294
H           6.9057070    -1.0973293     1.5498131
C           5.6114348    -1.5710745    -0.1322163
H           6.3930998    -2.0152754    -0.7429869
C           4.3167949    -1.4984263    -0.6247413
H           4.0828220    -1.8658620    -1.6161154
C           3.3248691    -0.9120305     0.1903029
N           3.5994136    -0.4035659     1.3995537
C           4.8584196    -0.4793114     1.8470093
H           5.0310162    -0.0487125     2.8324557
C           0.4891505    -1.4518297    -3.3599995
H           0.0201095    -0.9961853    -4.2247545
N           0.9613516    -0.6380347    -2.3569675
C           1.5077371    -1.3351071    -1.4004831
S           1.4625017    -3.0934912    -1.6762486
C           0.6820315    -2.7919409    -3.1964377
H           0.4398401    -3.5964595    -3.8772192
22
102_C9H9N3S_11-0-18-17 (-105,) energy =    -910.8024887
N           1.9096126    -0.8621028    -0.1325605
C           1.0106569     0.0843828     0.5432968
H           1.3312004     1.1203238     0.3868682
H           1.0031851    -0.1170173     1.6159928
H           0.0091511    -0.0485683     0.1325312
C           5.8407550    -0.9374527     1.1914218
H           6.8470597    -0.9255958     1.5969583
C           5.5447729    -1.5603457    -0.0256369
H           6.3272921    -2.0467184    -0.6022970
C           4.2449831    -1.5487073    -0.5089541
H           4.0049984    -2.0086464    -1.4598220
C           3.2525638    -0.9058164     0.2621507
N           3.5289745    -0.2946667     1.4217851
C           4.7929161    -0.3171483     1.8622729
H           4.9671803     0.1952383     2.8074956
C           0.7088160    -1.4827628    -3.4206906
H           0.4107273    -1.0217604    -4.3555182
N           1.1592379    -0.6798696    -2.3991734
C           1.4852623    -1.3855331    -1.3538139
S           1.2404275    -3.1329041    -1.5599283
C           0.6962416    -2.8257316    -3.1758981
H           0.4183989    -3.6288805    -3.8448058
22
102_C9H9N3S_11-0-18-17 (-90,) energy =    -910.8020741
N           1.9268651    -0.5083294    -0.3594612
C           0.8693481     0.0413834     0.4938476
H           1.2412540     0.9384074     0.9899381
H           0.5486690    -0.6672293     1.2693139
H           0.0184786     0.2978829    -0.1406201
C           5.7228514    -0.8414159     1.2734897
H           6.6933934    -0.8999462     1.7551284
C           5.5226351    -1.2955207    -0.0354121
H           6.3465341    -1.7154824    -0.6065953
C           4.2663991    -1.1997050    -0.6132407
H           4.0930092    -1.5175866    -1.6342801
C           3.2206488    -0.6480381     0.1581477
N           3.4002977    -0.2103325     1.4104339
C           4.6277602    -0.3041607     1.9393952
H           4.7276305     0.0701221     2.9573287
C           1.1676292    -1.7486087    -3.6080733
H           1.2095635    -1.5308834    -4.6691709
N           1.6595372    -0.8204246    -2.7208641
C           1.5356058    -1.2281633    -1.4911878
S           0.7761525    -2.8339233    -1.3422492
C           0.6428213    -2.8869286    -3.0663527
H           0.1899404    -3.7261211    -3.5769457
22
102_C9H9N3S_11-0-18-17 (-75,) energy =    -910.8030161
N           1.9236059    -0.4705795    -0.3756024
C           0.8690386    -0.0058053     0.5321752
H           1.2181958     0.8856648     1.0530689
H           0.6071980    -0.7558900     1.2906104
H          -0.0126573     0.2372093    -0.0637691
C           5.7203877    -0.8050919     1.2752415
H           6.6873962    -0.8669590     1.7636605
C           5.5419289    -1.1998892    -0.0555463
H           6.3797797    -1.5752009    -0.6374245
C           4.2902067    -1.0999995    -0.6434331
H           4.1328995    -1.3655460    -1.6807799
C           3.2266481    -0.6099935     0.1428825
N           3.3858712    -0.2258358     1.4141393
C           4.6091153    -0.3196721     1.9533189
H           4.6906551     0.0101719     2.9880296
C           1.3223140    -1.8730244    -3.5896790
H           1.5420353    -1.7826622    -4.6473987
N           1.8871039    -0.9718209    -2.7175344
C           1.5256815    -1.2106872    -1.4895112
S           0.4129406    -2.5949863    -1.3260610
C           0.4860099    -2.8027818    -3.0452489
H          -0.0939028    -3.5643618    -3.5483800
22
102_C9H9N3S_11-0-18-17 (-60,) energy =    -910.8046832
N           1.9287479    -0.4851855    -0.3608649
C           0.8895455    -0.0369557     0.5728435
H           1.2601115     0.8265770     1.1235332
H           0.6231180    -0.8105134     1.3054578
H           0.0063468     0.2439837    -0.0037593
C           5.7463436    -0.7657719     1.2678137
H           6.7151761    -0.8172930     1.7540046
C           5.5790380    -1.1061198    -0.0786066
H           6.4284059    -1.4265533    -0.6763656
C           4.3246445    -1.0188246    -0.6648182
H           4.1714549    -1.2385533    -1.7125774
C           3.2465027    -0.6033363     0.1426518
N           3.3957485    -0.2680758     1.4287434
C           4.6207532    -0.3447788     1.9653026
H           4.6917837    -0.0560140     3.0129171
C           1.4041409    -1.9995006    -3.5360779
H           1.7483468    -2.0401245    -4.5633254
N           2.0432617    -1.1538807    -2.6590678
C           1.5146878    -1.2174863    -1.4691218
S           0.1292392    -2.3366901    -1.3593474
C           0.3435797    -2.6986337    -3.0441988
H          -0.3286265    -3.3645654    -3.5671553
22
102_C9H9N3S_11-0-18-17 (-45,) energy =    -910.8063134
N           1.9163053    -0.5581195    -0.3578259
C           0.8753056    -0.1122622     0.5747662
H           1.2718785     0.6998018     1.1804215
H           0.5574847    -0.9140845     1.2546618
H           0.0179366     0.2401319    -0.0023041
C           5.7506196    -0.7012053     1.2615460
H           6.7206536    -0.7184571     1.7478130
C           5.5947810    -1.0444689    -0.0844608
H           6.4547671    -1.3332253    -0.6832020
C           4.3380499    -1.0019492    -0.6728824
H           4.1908659    -1.2292502    -1.7189297
C           3.2448392    -0.6282482     0.1344008
N           3.3846557    -0.2905283     1.4216549
C           4.6097914    -0.3230718     1.9596171
H           4.6689336    -0.0341239     3.0079234
C           1.4621591    -2.1219997    -3.5192938
H           1.8946214    -2.2755642    -4.5016055
N           2.1505626    -1.3530371    -2.6097340
C           1.5027657    -1.2600295    -1.4807953
S          -0.0623696    -2.1184400    -1.4805625
C           0.2540676    -2.6046918    -3.1200668
H          -0.4690856    -3.1751232    -3.6857026
22
102_C9H9N3S_11-0-18-17 (-30,) energy =    -910.8074803
N           1.9258963    -0.6264100    -0.2846437
C           0.8938081    -0.1661719     0.6508528
H           1.3404573     0.5484483     1.3368192
H           0.4821166    -0.9952676     1.2417976
H           0.0892653     0.3111116     0.0858676
C           5.8054369    -0.6330139     1.2428288
H           6.7862947    -0.6140233     1.7067847
C           5.6270810    -1.0094722    -0.0904156
H           6.4799153    -1.2897203    -0.7032778
C           4.3562635    -1.0155516    -0.6513813
H           4.1917111    -1.2792159    -1.6853067
C           3.2707247    -0.6514650     0.1708092
N           3.4343679    -0.2834055     1.4477879
C           4.6698637    -0.2718790     1.9590788
H           4.7434988     0.0399780     2.9998938
C           1.4496026    -2.1920601    -3.4425633
H           1.9194946    -2.4516950    -4.3846472
N           2.1944166    -1.5228711    -2.4994927
C           1.4924617    -1.2792781    -1.4255457
S          -0.1929526    -1.8613738    -1.5257017
C           0.1536127    -2.4545872    -3.1253706
H          -0.6119762    -2.9248494    -3.7258999
22
102_C9H9N3S_11-0-18-17 (-15,) energy =    -910.8081595
N           1.9315221    -0.7253190    -0.2186146
C           0.8931382    -0.2534436     0.7042731
H           1.3765652     0.2813416     1.5162748
H           0.3278475    -1.0954281     1.1243477
H           0.2045358     0.4116186     0.1734806
C           5.8458545    -0.5495797     1.2219302
H           6.8351370    -0.4797989     1.6624731
C           5.6493003    -0.9943854    -0.0867101
H           6.4959071    -1.2813048    -0.7051065
C           4.3672337    -1.0674090    -0.6177180
H           4.1906781    -1.3970871    -1.6298660
C           3.2872613    -0.6915152     0.2070933
N           3.4707728    -0.2601478     1.4618810
C           4.7141259    -0.1907202     1.9458863
H           4.7987894     0.1698777     2.9699680
C           1.4503942    -2.2419486    -3.4006092
H           1.9397917    -2.5909627    -4.3031219
N           2.2237920    -1.6876767    -2.4076974
C           1.4947834    -1.3164328    -1.3888562
S          -0.2508698    -1.6272152    -1.6088184
C           0.1110949    -2.2973329    -3.1752853
H          -0.6735999    -2.6654058    -3.8206132
22
102_C9H9N3S_11-0-18-17 (0,) energy =    -910.8083940
N           1.9442358    -0.8031119    -0.1934591
C           0.9043373    -0.3236748     0.7242114
H           1.3920285     0.0666102     1.6124145
H           0.2354801    -1.1459926     1.0038582
H           0.3160978     0.4707162     0.2501510
C           5.8802213    -0.3913212     1.1423940
H           6.8751542    -0.2532515     1.5530302
C           5.6713570    -0.9664589    -0.1121664
H           6.5134071    -1.2943714    -0.7162430
C           4.3820603    -1.1274300    -0.6053419
H           4.1967579    -1.5690861    -1.5719949
C           3.3069667    -0.6940725     0.1975952
N           3.5032718    -0.1411345     1.4020486
C           4.7519227     0.0024555     1.8536269
H           4.8445821     0.4582939     2.8382939
C           1.4631670    -2.2743049    -3.3972913
H           1.9549558    -2.7054954    -4.2622269
N           2.2414654    -1.8298302    -2.3543604
C           1.5088292    -1.3389764    -1.3897040
S          -0.2452984    -1.3993873    -1.7245395
C           0.1179867    -2.1371029    -3.2603609
H          -0.6690731    -2.4139622    -3.9470167
22
102_C9H9N3S_11-0-18-17 (15,) energy =    -910.8081595
N           1.9215326    -0.9102962    -0.1330098
C           0.8840191    -0.4221710     0.7823776
H           1.3507792    -0.1945478     1.7359860
H           0.1175725    -1.1926417     0.9133592
H           0.4138745     0.4903916     0.3936039
C           5.8604584    -0.2804777     1.0982969
H           6.8568495    -0.0796807     1.4784436
C           5.6507448    -0.9683704    -0.0983036
H           6.4934258    -1.3277496    -0.6832952
C           4.3595670    -1.2095703    -0.5518157
H           4.1716543    -1.7486909    -1.4674252
C           3.2851966    -0.7302400     0.2253073
N           3.4809207    -0.0733553     1.3761518
C           4.7319597     0.1379778     1.7947798
H           4.8261445     0.6743851     2.7378278
C           1.4472289    -2.3021361    -3.3725489
H           1.9282797    -2.8051594    -4.2040582
N           2.2082400    -1.9757832    -2.2745536
C           1.4915468    -1.3774606    -1.3604015
S          -0.2269427    -1.1878370    -1.8110823
C           0.1286431    -1.9758599    -3.3231900
H          -0.6459395    -2.1577626    -4.0543574
22
102_C9H9N3S_11-0-18-17 (30,) energy =    -910.8074803
N           1.9043835    -1.0237880    -0.1011462
C           0.8746920    -0.5191555     0.8138758
H           1.2835829    -0.5000530     1.8204407
H           0.0081719    -1.1839505     0.7753149
H           0.5633599     0.5010452     0.5524043
C           5.8285499    -0.2071606     1.0469250
H           6.8220434     0.0449604     1.4034403
C           5.6298336    -0.9595409    -0.1130356
H           6.4783547    -1.3196297    -0.6890685
C           4.3426424    -1.2677022    -0.5347851
H           4.1598984    -1.8670798    -1.4139608
C           3.2636715    -0.7821790     0.2313996
N           3.4461823    -0.0657425     1.3477910
C           4.6956932     0.2043762     1.7399136
H           4.7839363     0.7859881     2.6563819
C           1.4402808    -2.3660255    -3.3620688
H           1.8923238    -2.9549715    -4.1523416
N           2.1605327    -2.1491193    -2.2104888
C           1.4844046    -1.4290835    -1.3561816
S          -0.1449960    -0.9788721    -1.9322465
C           0.1870493    -1.8402909    -3.4082742
H          -0.5575496    -1.9239216    -4.1870471
22
102_C9H9N3S_11-0-18-17 (45,) energy =    -910.8063135
N           1.8857268    -1.1226069    -0.0973131
C           0.8482844    -0.6099866     0.8044209
H           1.1954131    -0.7098112     1.8306106
H          -0.0600483    -1.1988291     0.6613323
H           0.6313820     0.4515925     0.6249888
C           5.7808490    -0.1440740     1.0051481
H           6.7677293     0.1493278     1.3482251
C           5.6010330    -0.9295295    -0.1370305
H           6.4579994    -1.2740220    -0.7100755
C           4.3223871    -1.2911442    -0.5391841
H           4.1531709    -1.9247071    -1.3979654
C           3.2343297    -0.8224891     0.2243262
N           3.3962752    -0.0765831     1.3234298
C           4.6405077     0.2431392     1.6990296
H           4.7166964     0.8464887     2.6024122
C           1.4433848    -2.4705537    -3.3583639
H           1.8470872    -3.1550876    -4.0959146
N           2.0972442    -2.3384610    -2.1552359
C           1.4907035    -1.4844052    -1.3770921
S           0.0097192    -0.7905191    -2.0924107
C           0.3006049    -1.7483950    -3.5145340
H          -0.3913760    -1.7445880    -4.3448547
22
102_C9H9N3S_11-0-18-17 (60,) energy =    -910.8046832
N           1.8914573    -1.1730058    -0.0435018
C           0.8556889    -0.6613468     0.8609600
H           1.1700301    -0.8341439     1.8893555
H          -0.0720376    -1.2012154     0.6627114
H           0.6897541     0.4174771     0.7397014
C           5.7825972    -0.0972510     0.9600577
H           6.7713364     0.2183106     1.2770536
C           5.5911430    -0.8838894    -0.1806520
H           6.4404114    -1.2062649    -0.7775086
C           4.3109256    -1.2729298    -0.5473299
H           4.1350550    -1.9121558    -1.4017335
C           3.2340985    -0.8324504     0.2485701
N           3.4055729    -0.0866769     1.3454393
C           4.6535523     0.2604988     1.6866623
H           4.7415312     0.8623809     2.5899479
C           1.3740126    -2.5572193    -3.2786625
H           1.6779294    -3.3409303    -3.9633503
N           1.9706025    -2.4948285    -2.0405699
C           1.4991720    -1.5039650    -1.3367596
S           0.2248678    -0.5746042    -2.1713698
C           0.4012331    -1.6381663    -3.5327646
H          -0.2297629    -1.5450157    -4.4056761
22
102_C9H9N3S_11-0-18-17 (75,) energy =    -910.8030161
N           1.8845737    -1.1934337    -0.0416741
C           0.8309066    -0.7107358     0.8577834
H           1.1205567    -0.9215048     1.8871659
H          -0.0925472    -1.2415034     0.6187887
H           0.6679302     0.3719873     0.7707463
C           5.7607479    -0.0638580     0.9339503
H           6.7487156     0.2603292     1.2442844
C           5.5636662    -0.8030760    -0.2379776
H           6.4069675    -1.0773702    -0.8665044
C           4.2848754    -1.2018540    -0.5958323
H           4.1093576    -1.8037085    -1.4780582
C           3.2150767    -0.8262862     0.2432331
N           3.3915139    -0.1236806     1.3675989
C           4.6394190     0.2367261     1.6972548
H           4.7337021     0.8018117     2.6234621
C           1.2791423    -2.6717228    -3.2208744
H           1.4463743    -3.5518056    -3.8313657
N           1.7967387    -2.6426007    -1.9468754
C           1.5088024    -1.5249013    -1.3439207
S           0.5313374    -0.4080235    -2.3330510
C           0.5520645    -1.5839956    -3.6061630
H           0.0221153    -1.4221295    -4.5348181
22
102_C9H9N3S_11-0-18-17 (90,) energy =    -910.8020740
N           1.8918013    -1.1569397    -0.0598608
C           0.8254629    -0.7701084     0.8685494
H           1.1359482    -1.0059808     1.8868978
H          -0.0702848    -1.3410221     0.6155358
H           0.6014663     0.3041295     0.8221300
C           5.7663142    -0.0420360     0.9056365
H           6.7571983     0.2744700     1.2143819
C           5.5538043    -0.7239567    -0.2982489
H           6.3877093    -0.9597110    -0.9543372
C           4.2713389    -1.1120139    -0.6530491
H           4.0852201    -1.6658962    -1.5653020
C           3.2131056    -0.7896179     0.2239793
N           3.4043135    -0.1382234     1.3777604
C           4.6559523     0.2140606     1.7011312
H           4.7637801     0.7357364     2.6511208
C           1.1132680    -2.7526349    -3.1445794
H           1.0919223    -3.7017482    -3.6678582
N           1.5564667    -2.7226987    -1.8433064
C           1.5200688    -1.5156925    -1.3579951
S           0.9136318    -0.2983875    -2.5103067
C           0.7148127    -1.5600841    -3.6772289
H           0.3179539    -1.3652719    -4.6644465
22
102_C9H9N3S_11-0-18-17 (105,) energy =    -910.8024877
N           1.9105112    -0.7638429    -0.1721711
C           0.9509084    -0.7861688     0.9406132
H           1.1575524    -1.6124812     1.6299447
H          -0.0490682    -0.9078931     0.5225765
H           1.0110167     0.1512710     1.4961478
C           5.8763962    -0.0464851     0.8109781
H           6.8914470     0.1672080     1.1291357
C           5.5948120    -0.5374279    -0.4682996
H           6.3963690    -0.7240391    -1.1783234
C           4.2830383    -0.8004582    -0.8332111
H           4.0517557    -1.2007753    -1.8127693
C           3.2648608    -0.5507690     0.1123030
N           3.5263621    -0.0942876     1.3443871
C           4.8018420     0.1467318     1.6716617
H           4.9628264     0.5139619     2.6843824
C           0.6591723    -2.7489812    -2.8430749
H           0.2899491    -3.7302342    -3.1189715
N           1.0700348    -2.5339212    -1.5486376
C           1.4934262    -1.3127746    -1.3848828
S           1.3999988    -0.3158938    -2.8521500
C           0.7748873    -1.6917910    -3.6990920
H           0.5477764    -1.6542790    -4.7558228
22
102_C9H9N3S_11-0-18-17 (120,) energy =    -910.8035018
N           2.0040341    -0.8452874    -0.2143165
C           1.0950118    -0.8012859     0.9408989
H           1.4217940    -1.4955949     1.7212737
H           0.1009284    -1.0859042     0.5979302
H           1.0752925     0.2060497     1.3635725
C           5.9924835    -0.0262866     0.5830663
H           7.0144303     0.2184919     0.8531118
C           5.6806041    -0.6434435    -0.6325832
H           6.4653976    -0.9040950    -1.3379254
C           4.3606152    -0.9418759    -0.9367707
H           4.1081680    -1.4448591    -1.8619011
C           3.3649819    -0.5948491     0.0014992
N           3.6566294    -0.0186822     1.1758872
C           4.9391138     0.2505808     1.4475577
H           5.1244893     0.7146951     2.4153081
C           0.4058532    -2.6943384    -2.7863349
H          -0.1458955    -3.6008943    -3.0080022
N           0.8565655    -2.4904801    -1.5031306
C           1.5112253    -1.3675146    -1.4049017
S           1.6062382    -0.4548065    -2.9306494
C           0.7239054    -1.7346656    -3.7016270
H           0.5179705    -1.7200880    -4.7631136
22
102_C9H9N3S_11-0-18-17 (135,) energy =    -910.8046036
N           2.0126669    -0.9542042    -0.1549509
C           1.0876993    -0.9012756     0.9876639
H           1.5081526    -1.4448548     1.8370964
H           0.1527054    -1.3677082     0.6819119
H           0.9161401     0.1348037     1.2949298
C           5.9465316     0.0819701     0.6608827
H           6.9520102     0.3837624     0.9350961
C           5.6843977    -0.6133274    -0.5237751
H           6.4934653    -0.8821477    -1.1978304
C           4.3836593    -0.9828421    -0.8335369
H           4.1708706    -1.5517793    -1.7298893
C           3.3557378    -0.6234103     0.0640417
N           3.6008698     0.0261127     1.2109533
C           4.8660266     0.3599685     1.4912427
H           5.0137987     0.8811707     2.4360693
C           0.2727345    -2.5163686    -2.8154301
H          -0.3984554    -3.3296661    -3.0676309
N           0.7004137    -2.3932749    -1.5145496
C           1.5140828    -1.3830228    -1.3764870
S           1.8043899    -0.4836085    -2.8887664
C           0.7647895    -1.6108051    -3.7066445
H           0.6115155    -1.5606505    -4.7757739
22
102_C9H9N3S_11-0-18-17 (150,) energy =    -910.8054554
N           2.0543536    -1.0607679    -0.1249926
C           1.1325965    -0.9998830     1.0209972
H           1.6131666    -1.4334557     1.8998106
H           0.2438831    -1.5722975     0.7629109
H           0.8679847     0.0373655     1.2505099
C           5.9449016     0.1688520     0.6372457
H           6.9371800     0.5241877     0.8949973
C           5.7161144    -0.6152004    -0.4972215
H           6.5388822    -0.9040612    -1.1458265
C           4.4304283    -1.0506287    -0.7860770
H           4.2453427    -1.6937583    -1.6371873
C           3.3838502    -0.6632257     0.0765093
N           3.5989153     0.0682532     1.1792779
C           4.8496388     0.4627326     1.4432446
H           4.9732752     1.0491600     2.3525594
C           0.1436909    -2.3830272    -2.7926124
H          -0.6496152    -3.0801455    -3.0384733
N           0.5598760    -2.2940431    -1.4854562
C           1.5308886    -1.4315079    -1.3532693
S           1.9988432    -0.6396973    -2.8823713
C           0.7940060    -1.5984300    -3.6948414
H           0.6738083    -1.5532939    -4.7682251
22
102_C9H9N3S_11-0-18-17 (165,) energy =    -910.8058082
N           2.0873720    -1.1627337    -0.1116718
C           1.1719440    -1.1169233     1.0402454
H           1.7163489    -1.4109399     1.9377141
H           0.3555204    -1.8096448     0.8463506
H           0.7790478    -0.1052486     1.1885789
C           5.9309975     0.2424925     0.5952631
H           6.9089624     0.6469575     0.8348369
C           5.7376027    -0.6213423    -0.4857124
H           6.5747270    -0.9270196    -1.1075824
C           4.4680648    -1.1175718    -0.7509194
H           4.3118259    -1.8281585    -1.5528634
C           3.4028692    -0.7056406     0.0748548
N           3.5855518     0.1002848     1.1299763
C           4.8207144     0.5503936     1.3760940
H           4.9188778     1.1963185     2.2473077
C           0.0279699    -2.2185642    -2.7840166
H          -0.8725613    -2.7730869    -3.0238401
N           0.4280185    -2.1514818    -1.4704767
C           1.5344880    -1.4686866    -1.3439558
S           2.1641518    -0.8334716    -2.8879973
C           0.8176037    -1.5914041    -3.6960748
H           0.7235783    -1.5582731    -4.7723441
22
102_C9H9N3S_11-0-18-17 (180,) energy =    -910.8057557
N           2.1496157    -0.4840920    -0.4587696
C           1.2781251     0.4884027     0.2193038
H           1.8972495     1.1159419     0.8564640
H           0.5276033    -0.0184207     0.8353290
H           0.7664485     1.0845999    -0.5366839
C           5.8126557    -1.2820031     1.3361924
H           6.7391306    -1.4772337     1.8662425
C           5.6995692    -1.4790077    -0.0413065
H           6.5516186    -1.8159477    -0.6255156
C           4.4930540    -1.2098473    -0.6764376
H           4.4070263    -1.2968523    -1.7525087
C           3.4069537    -0.7742125     0.1062628
N           3.5173959    -0.5547071     1.4232178
C           4.6939058    -0.7977097     2.0096541
H           4.7355982    -0.5967456     3.0790583
C          -0.0463819    -1.8331711    -2.8694484
H          -1.0031215    -1.6781244    -3.3560883
N           0.3806761    -0.9045894    -1.9486774
C           1.5520944    -1.2237105    -1.4632043
S           2.2140631    -2.7421686    -2.1199400
C           0.7800644    -2.8850998    -3.1062529
H           0.6608276    -3.7090975    -3.7953792
