20
171_C5H12N2O_0-5-6-11 (-165,) energy =    -382.4888790
N           1.2407289    -1.3119754    -0.3035881
C           0.6953340    -0.1468763    -0.9869739
H           0.0952743    -0.4643061    -1.8526982
H           1.5034326     0.4878094    -1.3501348
H           0.0458909     0.4430007    -0.3257649
C           2.5948525    -1.6232536    -0.3065670
N           3.4646302    -0.5277502    -0.3134478
C           3.2918178     0.5778939     0.6214028
H           2.2643948     0.6121683     0.9842751
H           3.5290747     1.5366718     0.1423805
H           3.9553533     0.4607612     1.4930058
C           4.8489749    -0.8208006    -0.6559279
H           4.8785892    -1.5971184    -1.4204462
H           5.4297731    -1.1728750     0.2105185
H           5.3190218     0.0908273    -1.0427134
O           3.0002981    -2.7821391    -0.3333853
C           0.3127074    -2.4211429    -0.1420765
H           0.0276648    -2.8604506    -1.1101131
H          -0.5955347    -2.0644731     0.3578166
H           0.7808047    -3.1989605     0.4602448
20
171_C5H12N2O_0-5-6-11 (-150,) energy =    -382.4864528
N           1.2288207    -1.3785163    -0.4365346
C           0.6966309    -0.1814298    -1.0618180
H           0.0312613    -0.4666021    -1.8876855
H           1.5158809     0.4162274    -1.4602976
H           0.1116505     0.4286815    -0.3573021
C           2.5629064    -1.5988986    -0.1684916
N           3.3983361    -0.4627306    -0.3272027
C           3.3025509     0.5725826     0.6978301
H           2.2563576     0.7637849     0.9486033
H           3.7408996     1.5051198     0.3236552
H           3.8314492     0.2911867     1.6240232
C           4.7639257    -0.7881225    -0.7245742
H           4.7440606    -1.5193064    -1.5346406
H           5.3637744    -1.2071353     0.0977548
H           5.2477383     0.1273602    -1.0831136
O           3.0075431    -2.7106310     0.1016665
C           0.2740187    -2.4383924    -0.1570581
H          -0.1742591    -2.8133408    -1.0876759
H          -0.5347690    -2.0685963     0.4877901
H           0.7956243    -3.2563041     0.3378360
20
171_C5H12N2O_0-5-6-11 (-135,) energy =    -382.4835156
N           1.2255450    -1.4019281    -0.4680206
C           0.6840731    -0.2646208    -1.1932925
H           0.1732949    -0.6136201    -2.1006526
H           1.4980510     0.4029404    -1.4693014
H          -0.0497613     0.2828124    -0.5839461
C           2.5174737    -1.5018800    -0.0186745
N           3.3358161    -0.3492561    -0.3043997
C           3.4228356     0.5523951     0.8463927
H           2.4169178     0.8408400     1.1688963
H           3.9592194     1.4607709     0.5512035
H           3.9463318     0.0975818     1.7040546
C           4.6504847    -0.7385995    -0.8176310
H           4.5243076    -1.3780038    -1.6958349
H           5.2590793    -1.2813516    -0.0787650
H           5.1839676     0.1676451    -1.1240273
O           2.9580563    -2.5037366     0.5334438
C           0.2883685    -2.4717984    -0.1619786
H          -0.1205059    -2.8963874    -1.0882901
H          -0.5489348    -2.0926139     0.4397746
H           0.8148198    -3.2481385     0.3909537
20
171_C5H12N2O_0-5-6-11 (-120,) energy =    -382.4824071
N           1.1794003    -1.3422260    -0.4870401
C           0.6858606    -0.2832154    -1.3532872
H           0.3997896    -0.6942831    -2.3312708
H           1.4677069     0.4616758    -1.4842713
H          -0.2036368     0.1881346    -0.9124981
C           2.4223930    -1.3725091     0.0846468
N           3.2616849    -0.2353780    -0.2497115
C           3.5840727     0.5209501     0.9671438
H           2.6592695     0.8703764     1.4380282
H           4.1775975     1.3982069     0.6887910
H           4.1474708    -0.0754288     1.7015986
C           4.4808052    -0.6960162    -0.9263845
H           4.2110849    -1.2370264    -1.8392650
H           5.0938592    -1.3577214    -0.2952742
H           5.0752142     0.1786412    -1.2108826
O           2.8054707    -2.2795590     0.8140761
C           0.2505956    -2.4285003    -0.2127202
H          -0.0556847    -2.9136995    -1.1488080
H          -0.6502817    -2.0465444     0.2859801
H           0.7435467    -3.1548180     0.4314360
20
171_C5H12N2O_0-5-6-11 (-105,) energy =    -382.4830724
N           1.1991658    -1.3198290    -0.4441938
C           0.7577253    -0.3465665    -1.4303211
H           0.6825977    -0.8048423    -2.4268498
H           1.4678754     0.4771631    -1.4603491
H          -0.2362514     0.0342056    -1.1593521
C           2.3935281    -1.2713158     0.2242194
N           3.2356506    -0.1500941    -0.1444009
C           3.7586672     0.5083353     1.0603001
H           2.9252822     0.8531267     1.6797565
H           4.3413308     1.3821770     0.7504395
H           4.3932852    -0.1538348     1.6670217
C           4.3392571    -0.6172281    -0.9962413
H           3.9364575    -1.0992695    -1.8933508
H           4.9965304    -1.3339902    -0.4782418
H           4.9348033     0.2459598    -1.3115804
O           2.7172490    -2.0853374     1.0810789
C           0.2993053    -2.4368844    -0.2000428
H           0.1305576    -3.0055875    -1.1245580
H          -0.6717385    -2.0717932     0.1593956
H           0.7450203    -3.0857927     0.5521585
20
171_C5H12N2O_0-5-6-11 (-90,) energy =    -382.4850190
N           1.1968643    -1.3239671    -0.4417214
C           0.8308066    -0.4080269    -1.5086284
H           0.9429973    -0.8747930    -2.4984552
H           1.4604634     0.4784072    -1.4529896
H          -0.2207782    -0.1137360    -1.3943482
C           2.3257254    -1.2119654     0.3314785
N           3.1952878    -0.1286379    -0.0470053
C           3.8658195     0.4427219     1.1271444
H           3.1179098     0.7599596     1.8581002
H           4.4322071     1.3220701     0.8029336
H           4.5473630    -0.2667675     1.6174734
C           4.1852350    -0.5651151    -1.0424759
H           3.6798788    -0.9842496    -1.9182615
H           4.8753135    -1.3247452    -0.6400124
H           4.7707409     0.3006560    -1.3693448
O           2.5484985    -1.9339828     1.2968491
C           0.3022065    -2.4495783    -0.2237144
H           0.2232366    -3.0644970    -1.1308531
H          -0.7032152    -2.0930735     0.0366419
H           0.6940409    -3.0521076     0.5943301
20
171_C5H12N2O_0-5-6-11 (-75,) energy =    -382.4872395
N           1.2631973    -1.3018180    -0.4734909
C           0.9254095    -0.4056865    -1.5653633
H           1.1079029    -0.8669176    -2.5472847
H           1.5130909     0.5078671    -1.4816916
H          -0.1408571    -0.1480437    -1.5106284
C           2.3083987    -1.1092684     0.4019886
N           3.2320561    -0.0951699     0.0101989
C           3.9900566     0.4279281     1.1496990
H           3.3020226     0.7290501     1.9417611
H           4.5515989     1.3060327     0.8136006
H           4.6907874    -0.3088255     1.5683810
C           4.1300196    -0.4962989    -1.0803656
H           3.5592478    -0.9019208    -1.9192149
H           4.8588709    -1.2571967    -0.7560161
H           4.6819869     0.3807129    -1.4351710
O           2.4066943    -1.7186148     1.4621757
C           0.3431081    -2.4014041    -0.2342197
H           0.2369431    -3.0153464    -1.1385281
H          -0.6515065    -2.0251368     0.0435087
H           0.7301150    -3.0102699     0.5815597
20
171_C5H12N2O_0-5-6-11 (-60,) energy =    -382.4887221
N           1.3059317    -1.3580358    -0.5493828
C           0.9466124    -0.4484673    -1.6264722
H           1.1055788    -0.9023077    -2.6149451
H           1.5365487     0.4648438    -1.5519089
H          -0.1167955    -0.1810948    -1.5476969
C           2.2444958    -1.0641383     0.4230417
N           3.2320534    -0.1286122     0.0422580
C           4.0097439     0.3859764     1.1674866
H           3.3380168     0.6801451     1.9747221
H           4.5714144     1.2629506     0.8281194
H           4.7161952    -0.3571533     1.5663528
C           4.0798145    -0.4729783    -1.1019063
H           3.4903130    -0.9257739    -1.8999310
H           4.8744487    -1.1823275    -0.8178433
H           4.5553797     0.4330427    -1.4942801
O           2.2023730    -1.5538860     1.5476323
C           0.3414571    -2.4083746    -0.2636154
H           0.1337139    -2.9770120    -1.1782327
H          -0.6073024    -1.9947811     0.1096958
H           0.7507027    -3.0716461     0.4972732
20
171_C5H12N2O_0-5-6-11 (-45,) energy =    -382.4892294
N           1.3453098    -1.3886297    -0.5748420
C           0.9731945    -0.4480312    -1.6262917
H           1.0321167    -0.9150680    -2.6183263
H           1.6285053     0.4224237    -1.6040286
H          -0.0599226    -0.0988831    -1.4776791
C           2.1972133    -1.0300510     0.4670105
N           3.2685698    -0.2035973     0.1146118
C           4.0496809     0.3133821     1.2316002
H           3.3831824     0.5791742     2.0518563
H           4.5939713     1.2044526     0.8994277
H           4.7764539    -0.4234162     1.6061924
C           4.0650417    -0.4789120    -1.0790532
H           3.4955362    -1.0764059    -1.7901821
H           4.9756822    -1.0405578    -0.8175296
H           4.3714773     0.4556788    -1.5654384
O           2.0150804    -1.4088828     1.6205017
C           0.3187606    -2.3704201    -0.2534854
H           0.0196625    -2.8877863    -1.1721453
H          -0.5731633    -1.9044490     0.1922963
H           0.7164310    -3.0928576     0.4587599
20
171_C5H12N2O_0-5-6-11 (-30,) energy =    -382.4890663
N           1.3834664    -1.4379826    -0.6279085
C           0.9900726    -0.4693736    -1.6507323
H           0.8794634    -0.9661225    -2.6222214
H           1.7348248     0.3200817    -1.7459019
H           0.0272065     0.0029829    -1.3976678
C           2.1552825    -1.0206415     0.4678585
N           3.3002644    -0.3012038     0.1592073
C           4.0487718     0.2658725     1.2703337
H           3.3705442     0.4546081     2.1015622
H           4.5152162     1.2062893     0.9534918
H           4.8404826    -0.4147194     1.6182775
C           4.0563027    -0.4868753    -1.0711880
H           3.5621614    -1.2210735    -1.7076834
H           5.0629445    -0.8619176    -0.8367419
H           4.1704525     0.4536183    -1.6283125
O           1.8499566    -1.2982239     1.6245340
C           0.3190744    -2.3790468    -0.2956180
H          -0.0090445    -2.8748558    -1.2158004
H          -0.5474726    -1.8831067     0.1671727
H           0.6947298    -3.1258233     0.4039322
20
171_C5H12N2O_0-5-6-11 (-15,) energy =    -382.4882629
N           1.4164240    -1.4581851    -0.6443282
C           1.0007938    -0.4827639    -1.6555543
H           0.8047378    -0.9938990    -2.6051813
H           1.7750366     0.2659704    -1.8226883
H           0.0801787     0.0428176    -1.3531735
C           2.1346305    -0.9830515     0.4760703
N           3.3480124    -0.3826179     0.2000921
C           4.0661689     0.2590263     1.2888367
H           3.4142425     0.3039895     2.1598709
H           4.3710294     1.2736661     0.9997207
H           4.9698610    -0.3087187     1.5528568
C           4.0562279    -0.4829704    -1.0633540
H           3.5983436    -1.2521160    -1.6858045
H           5.0990487    -0.7697975    -0.8723036
H           4.0693903     0.4692688    -1.6144384
O           1.7355288    -1.1539844     1.6250415
C           0.3362521    -2.3782730    -0.2945124
H          -0.0003359    -2.8789573    -1.2087853
H          -0.5206351    -1.8654717     0.1670486
H           0.7028217    -3.1252024     0.4103073
20
171_C5H12N2O_0-5-6-11 (0,) energy =    -382.4867530
N           1.4256079    -1.4772710    -0.6494738
C           0.9946303    -0.5049494    -1.6598455
H           0.7398214    -1.0312311    -2.5865229
H           1.7861261     0.2114017    -1.8833354
H           0.1068324     0.0598699    -1.3303947
C           2.1022421    -0.9504635     0.4833058
N           3.3788078    -0.4784838     0.2517887
C           4.0657103     0.2180290     1.3286046
H           3.4546298     0.1544289     2.2273750
H           4.2348888     1.2739372     1.0720880
H           5.0411492    -0.2480209     1.5192717
C           4.0519357    -0.4858135    -1.0330390
H           3.6138528    -1.2502175    -1.6754006
H           5.1109067    -0.7284720    -0.8790626
H           4.0061232     0.4896064    -1.5415958
O           1.6248412    -1.0139499     1.6129012
C           0.3361509    -2.3831120    -0.2833015
H          -0.0026170    -2.8946786    -1.1905919
H          -0.5164527    -1.8584527     0.1719684
H           0.6979918    -3.1245340     0.4304934
20
171_C5H12N2O_0-5-6-11 (15,) energy =    -382.4882633
N           1.3230919    -1.2895621    -0.2470198
C           0.8386109    -0.3594892     0.7762392
H          -0.0240311     0.2236052     0.4141912
H           1.6181217     0.3425530     1.0720612
H           0.5228855    -0.9184256     1.6646869
C           2.1678451    -0.7778576    -1.2576184
N           3.3659273    -0.2439918    -0.8238188
C           4.2114510     0.4374017    -1.7899754
H           4.5184713     1.4184544    -1.4035812
H           3.6534846     0.5641773    -2.7165027
H           5.1182343    -0.1472789    -2.0013132
C           3.9390545    -0.4459423     0.4946047
H           3.3921647    -1.2278487     1.0220068
H           3.9327436     0.4728424     1.0999908
H           4.9842134    -0.7670845     0.3902984
O           1.8832420    -0.8634569    -2.4493389
C           0.2540122    -2.1436404    -0.7602518
H          -0.5360251    -1.5702170    -1.2675815
H          -0.1876967    -2.6876788     0.0816671
H           0.6645758    -2.8579964    -1.4744572
20
171_C5H12N2O_0-5-6-11 (30,) energy =    -382.4890663
N           1.3104180    -1.2566614    -0.2572143
C           0.8428410    -0.3396597     0.7818288
H          -0.0694897     0.1884959     0.4609272
H           1.6003637     0.4096567     1.0090665
H           0.6098297    -0.8924307     1.6999436
C           2.2109904    -0.8032574    -1.2339298
N           3.3404527    -0.1544600    -0.7572573
C           4.2248452     0.4502116    -1.7414641
H           4.6871568     1.3476986    -1.3135296
H           3.6480329     0.7204857    -2.6250897
H           5.0250383    -0.2397952    -2.0491294
C           3.9513193    -0.4505497     0.5308084
H           3.3652554    -1.2022891     1.0597376
H           4.0375477     0.4466284     1.1597618
H           4.9635394    -0.8523291     0.3793712
O           2.0234567    -0.9929597    -2.4326868
C           0.2557294    -2.1283468    -0.7639150
H          -0.5372975    -1.5673500    -1.2810479
H          -0.1877615    -2.6676350     0.0803056
H           0.6784352    -2.8441160    -1.4690085
20
171_C5H12N2O_0-5-6-11 (45,) energy =    -382.4892294
N           1.2800247    -1.2024327    -0.3105362
C           0.8294837    -0.3160981     0.7572490
H          -0.1683501     0.0855172     0.5241101
H           1.5137766     0.5253051     0.8640365
H           0.7637144    -0.8477787     1.7157468
C           2.2522218    -0.8144781    -1.2292849
N           3.3075820    -0.0586479    -0.7097169
C           4.2232262     0.4950631    -1.6996994
H           4.7594592     1.3390538    -1.2516692
H           3.6596065     0.8409642    -2.5659390
H           4.9598090    -0.2465124    -2.0445203
C           3.9594283    -0.4434855     0.5400823
H           3.2952329    -1.0604955     1.1443859
H           4.2441568     0.4441496     1.1188456
H           4.8726024    -1.0254948     0.3388733
O           2.1831404    -1.1105784    -2.4187302
C           0.2603004    -2.1170349    -0.8051582
H          -0.5608466    -1.5859268    -1.3101537
H          -0.1549591    -2.6789551     0.0391573
H           0.7071194    -2.8086611    -1.5188508
20
171_C5H12N2O_0-5-6-11 (60,) energy =    -382.4887221
N           1.2448011    -1.1687436    -0.3377609
C           0.8030298    -0.3154249     0.7546039
H          -0.2353855     0.0014187     0.5818905
H           1.4295447     0.5748682     0.8054147
H           0.8375103    -0.8378797     1.7211263
C           2.2931521    -0.8532010    -1.1829048
N           3.2660313     0.0131826    -0.6366171
C           4.1791090     0.5650814    -1.6353493
H           4.7314563     1.3937388    -1.1793135
H           3.6098937     0.9387613    -2.4872527
H           4.8977989    -0.1804748    -2.0068829
C           3.9718821    -0.4396731     0.5647047
H           3.2835434    -0.9170170     1.2630675
H           4.4340293     0.4182262     1.0661196
H           4.7668698    -1.1626775     0.3186161
O           2.3560772    -1.2676181    -2.3364282
C           0.2804123    -2.1565332    -0.7953015
H          -0.6066905    -1.6798124    -1.2384186
H          -0.0458498    -2.7729467     0.0512251
H           0.7462321    -2.7868143    -1.5516893
20
171_C5H12N2O_0-5-6-11 (75,) energy =    -382.4872395
N           1.2125449    -1.1058976    -0.4138839
C           0.7901588    -0.2679529     0.6946175
H          -0.2540453     0.0378427     0.5448601
H           1.4154743     0.6232245     0.7362626
H           0.8484567    -0.7984693     1.6565747
C           2.3528238    -0.9023712    -1.1584097
N           3.2638162     0.0443238    -0.6026217
C           4.1591757     0.6065627    -1.6169583
H           4.7116563     1.4366400    -1.1640823
H           3.5723585     0.9868020    -2.4551055
H           4.8746800    -0.1310360    -2.0082697
C           4.0232141    -0.4636595     0.5470904
H           3.3506757    -0.8974582     1.2910585
H           4.5641283     0.3645410     1.0174095
H           4.7555370    -1.2325892     0.2507081
O           2.5440147    -1.4462251    -2.2412902
C           0.2854946    -2.1477339    -0.8238289
H          -0.6591128    -1.7124546    -1.1790996
H           0.0600585    -2.8132560     0.0201075
H           0.7369859    -2.7190245    -1.6336269
20
171_C5H12N2O_0-5-6-11 (90,) energy =    -382.4850188
N           1.1498864    -1.1223638    -0.4514562
C           0.7026885    -0.2609104     0.6297952
H          -0.3186604     0.0855348     0.4240005
H           1.3664539     0.5990466     0.7019968
H           0.6887313    -0.7939702     1.5920106
C           2.3589921    -1.0092473    -1.0918330
N           3.2204002     0.0092987    -0.5502338
C           4.0338966     0.6258346    -1.6051907
H           4.5927116     1.4575694    -1.1635115
H           3.3811768     1.0209583    -2.3875783
H           4.7388445    -0.0791113    -2.0682078
C           4.0806747    -0.5324399     0.5118910
H           3.4688693    -0.9849367     1.2986595
H           4.6580149     0.2845856     0.9572551
H           4.7825370    -1.2935458     0.1333354
O           2.6594566    -1.6769636    -2.0750977
C           0.2440870    -2.1917564    -0.8397615
H          -0.7129307    -1.7759794    -1.1818727
H           0.0434147    -2.8586652     0.0100676
H           0.7011714    -2.7579887    -1.6498313
20
171_C5H12N2O_0-5-6-11 (105,) energy =    -382.4830724
N           1.1515506    -1.1178933    -0.4491335
C           0.6408080    -0.1916535     0.5487518
H          -0.3036496     0.2479183     0.2006442
H           1.3725030     0.5972727     0.7098835
H           0.4416672    -0.7090582     1.4981545
C           2.4123560    -1.0780183    -0.9824423
N           3.2491782    -0.0199339    -0.4510539
C           3.9231241     0.6911573    -1.5458262
H           4.4997184     1.5174890    -1.1170788
H           3.1747985     1.1104297    -2.2250583
H           4.5956502     0.0425032    -2.1257208
C           4.2364039    -0.5876371     0.4789429
H           3.7216402    -1.1083240     1.2933892
H           4.8248271     0.2271943     0.9137013
H           4.9198389    -1.2973836    -0.0142673
O           2.7978018    -1.8487667    -1.8536588
C           0.2441065    -2.1774105    -0.8628191
H          -0.6683281    -1.7487814    -1.2977425
H          -0.0445446    -2.7960408    -0.0022376
H           0.7454606    -2.7956568    -1.6057640
20
171_C5H12N2O_0-5-6-11 (120,) energy =    -382.4824072
N           1.1260806    -1.1416908    -0.4104631
C           0.5800469    -0.1203384     0.4693659
H          -0.2391147     0.4161406    -0.0294768
H           1.3692776     0.5803915     0.7328000
H           0.1753838    -0.5806792     1.3812893
C           2.4219202    -1.1891492    -0.8479568
N           3.2602308    -0.1129615    -0.3498487
C           3.7398028     0.7050307    -1.4711407
H           4.3301624     1.5367704    -1.0723106
H           2.8848637     1.1228289    -2.0130181
H           4.3584948     0.1333793    -2.1803725
C           4.3812158    -0.6675741     0.4193284
H           3.9949198    -1.2541289     1.2592959
H           4.9719178     0.1608109     0.8245230
H           5.0355863    -1.3129422    -0.1868035
O           2.8490066    -2.0633643    -1.5928980
C           0.1941153    -2.1673973    -0.8545906
H          -0.6332888    -1.7161030    -1.4184307
H          -0.2287844    -2.6978060     0.0087203
H           0.7275076    -2.8715182    -1.4911262
20
171_C5H12N2O_0-5-6-11 (135,) energy =    -382.4835156
N           1.1722718    -1.2024276    -0.4283265
C           0.5963797    -0.0916377     0.3113844
H          -0.0469085     0.5246502    -0.3334942
H           1.3989850     0.5213362     0.7169292
H          -0.0220235    -0.4757001     1.1336200
C           2.5009261    -1.3288237    -0.7440590
N           3.3241884    -0.2330480    -0.2953107
C           3.5678475     0.7357984    -1.3662193
H           4.1012066     1.5995641    -0.9546038
H           2.6138587     1.0871994    -1.7730383
H           4.1647200     0.3147180    -2.1926090
C           4.5605865    -0.7105202     0.3265361
H           4.3170047    -1.3987864     1.1407581
H           5.0897773     0.1505223     0.7488205
H           5.2259482    -1.2305260    -0.3789972
O           2.9626540    -2.3113089    -1.3134404
C           0.2361217    -2.2092916    -0.9041741
H          -0.5167870    -1.7567853    -1.5639706
H          -0.2858367    -2.6743017    -0.0575146
H           0.7913226    -2.9705728    -1.4498772
20
171_C5H12N2O_0-5-6-11 (150,) energy =    -382.4864528
N           1.1797694    -1.1772041    -0.4576188
C           0.6260877    -0.0008212     0.1879696
H           0.1432520     0.6776549    -0.5312793
H           1.4181343     0.5343937     0.7108053
H          -0.1347640    -0.3094048     0.9173377
C           2.5263081    -1.4370717    -0.5972360
N           3.3797454    -0.3503113    -0.2737847
C           3.4329584     0.7515919    -1.2301902
H           3.8612538     1.6385936    -0.7489692
H           2.4276951     1.0032182    -1.5767414
H           4.0488266     0.5075440    -2.1121764
C           4.6815889    -0.7588169     0.2428795
H           4.5477219    -1.5387814     0.9945230
H           5.1561295     0.1102287     0.7122465
H           5.3517450    -1.1497610    -0.5379339
O           2.9575309    -2.5473063    -0.8939878
C           0.2235885    -2.1750587    -0.9082855
H          -0.4966678    -1.7303858    -1.6084372
H          -0.3361815    -2.5891685    -0.0581335
H           0.7661885    -2.9812787    -1.3997793
20
171_C5H12N2O_0-5-6-11 (165,) energy =    -382.4888790
N           1.2084054    -1.1028743    -0.5836694
C           0.6341564     0.0384872     0.1159377
H           0.0819095     0.6968084    -0.5685821
H           1.4202770     0.6133358     0.6051194
H          -0.0673454    -0.3075845     0.8895277
C           2.5421809    -1.4715617    -0.4585286
N           3.4447494    -0.4170999    -0.2848385
C           3.4141625     0.7524655    -1.1551477
H           3.6323156     1.6675535    -0.5894361
H           2.4340630     0.8540284    -1.6215578
H           4.1636967     0.6628863    -1.9575611
C           4.7723560    -0.7906393     0.1815439
H           4.6909900    -1.6147972     0.8901890
H           5.2300233     0.0733645     0.6771750
H           5.4307552    -1.1112256    -0.6404946
O           2.9005470    -2.6461278    -0.4680422
C           0.2642553    -2.1585404    -0.9178873
H          -0.5709717    -1.7319382    -1.4857055
H          -0.1397727    -2.6462197    -0.0177388
H           0.7668053    -2.9156282    -1.5188600
20
171_C5H12N2O_0-5-6-11 (180,) energy =    -382.4888808
N           1.2818639    -1.0476459    -0.5976748
C           0.6939056     0.0248563     0.2044331
H           0.1033423     0.7006503    -0.4266144
H           1.4712872     0.6005524     0.7059653
H           0.0275878    -0.3876295     0.9783594
C           2.5471167    -1.5560153    -0.2796406
N           3.5406036    -0.6082901    -0.0402341
C           3.5978160     0.6452169    -0.7901326
H           3.8100298     1.4931482    -0.1263172
H           2.6566674     0.8246357    -1.3081144
H           4.3954186     0.5995954    -1.5469530
C           4.8547293    -1.1475137     0.2901708
H           4.7415105    -2.0150860     0.9394289
H           5.4353443    -0.3761943     0.8078748
H           5.4068112    -1.4602608    -0.6089161
O           2.7742333    -2.7617424    -0.2425917
C           0.3097783    -2.0453466    -1.0300153
H          -0.5060799    -1.5348215    -1.5533705
H          -0.1117884    -2.6106236    -0.1851680
H           0.7875707    -2.7535473    -1.7068924
