20
171_C5H12N2O_16-0-5-6 (-165,) energy =    -382.4888790
N           1.2478355    -1.0163620    -0.5015554
C           0.9124142     0.1128221    -1.3611329
H           1.8190319     0.6067756    -1.7111179
H           0.2965845     0.8452751    -0.8232901
H           0.3464449    -0.2227055    -2.2447181
C           2.5032056    -1.6295710    -0.5703648
N           3.5926007    -0.7676676    -0.5395014
C           3.5980969     0.4734057     0.2231070
H           4.2921654     0.3907312     1.0726685
H           2.6027359     0.6757814     0.6181210
H           3.9194663     1.3250306    -0.3920274
C           4.9035125    -1.3584764    -0.7632142
H           4.8030247    -2.2227893    -1.4187834
H           5.3678530    -1.6921195     0.1772066
H           5.5611734    -0.6160517    -1.2304476
O           2.6347614    -2.8494441    -0.6225674
C           0.1295997    -1.8960908    -0.1927754
H          -0.2604956    -2.4076404    -1.0861592
H          -0.6784547    -1.3008673     0.2480873
H           0.4503899    -2.6566928     0.5189742
20
171_C5H12N2O_16-0-5-6 (-150,) energy =    -382.4864521
N           1.2801179    -0.9295272    -0.4818850
C           0.9038626     0.1086804    -1.4371478
H           1.7621425     0.7457276    -1.6640415
H           0.1147225     0.7372387    -1.0082906
H           0.5300892    -0.3139858    -2.3849689
C           2.5187852    -1.5848023    -0.7056700
N           3.6343987    -0.8312028    -0.4089081
C           3.6133288     0.4376858     0.2957003
H           4.3530840     0.4162935     1.1071078
H           2.6249488     0.5996432     0.7247044
H           3.8653889     1.2819640    -0.3635038
C           4.9458923    -1.3578734    -0.7487163
H           4.8161714    -2.2896935    -1.2972356
H           5.5316956    -1.5578266     0.1592618
H           5.5031585    -0.6383767    -1.3640147
O           2.5889877    -2.7599481    -1.0531781
C           0.1934875    -1.8342550    -0.1219487
H          -0.1833567    -2.4165152    -0.9766900
H          -0.6296662    -1.2400611     0.2904379
H           0.5397175    -2.5364160     0.6385195
20
171_C5H12N2O_16-0-5-6 (-135,) energy =    -382.4835156
N           1.2877566    -0.7988571    -0.4971986
C           0.8007157     0.0481130    -1.5881333
H           1.5789651     0.7606574    -1.8808927
H          -0.0683842     0.6171621    -1.2405030
H           0.5076797    -0.5326561    -2.4788433
C           2.5159963    -1.4680898    -0.8487188
N           3.6482242    -0.8516598    -0.3807787
C           3.6629386     0.3601897     0.4216650
H           4.2918315     0.2085982     1.3090686
H           2.6467556     0.5943996     0.7329540
H           4.0784170     1.2068160    -0.1441176
C           4.9478442    -1.3941030    -0.7459494
H           4.7950701    -2.2848680    -1.3532304
H           5.5165619    -1.6592201     0.1550316
H           5.5300974    -0.6552847    -1.3134803
O           2.5376048    -2.5251708    -1.4690091
C           0.2772440    -1.7464221    -0.0236530
H          -0.0529428    -2.4505756    -0.8021451
H          -0.5879060    -1.1783837     0.3349922
H           0.6817613    -2.3232095     0.8128296
20
171_C5H12N2O_16-0-5-6 (-120,) energy =    -382.4824073
N           1.3047718    -0.6617647    -0.5453985
C           0.6662447    -0.0416361    -1.7133541
H           1.3434413     0.6984499    -2.1524256
H          -0.2396972     0.4782120    -1.3840968
H           0.3973362    -0.7744784    -2.4900170
C           2.5432323    -1.3064092    -0.9450329
N           3.6644252    -0.7823917    -0.3609180
C           3.6738294     0.3287075     0.5775809
H           4.1267834     0.0187155     1.5294261
H           2.6511399     0.6572676     0.7492196
H           4.2675780     1.1623805     0.1774175
C           4.9632525    -1.3468590    -0.6960375
H           4.8163062    -2.1720435    -1.3909824
H           5.4652597    -1.7121679     0.2095135
H           5.6045768    -0.5854575    -1.1598803
O           2.5711861    -2.2423001    -1.7355519
C           0.4133176    -1.6411773     0.0885446
H           0.1295355    -2.4604446    -0.5899589
H          -0.4923115    -1.1248875     0.4241270
H           0.9062224    -2.0711623     0.9665957
20
171_C5H12N2O_16-0-5-6 (-105,) energy =    -382.4830724
N           1.2893127    -0.5671319    -0.6446186
C           0.5116876    -0.1217514    -1.8087992
H           1.1052483     0.5848998    -2.3965631
H          -0.3827353     0.3970056    -1.4482323
H           0.2098238    -0.9522739    -2.4633464
C           2.5228785    -1.1941537    -1.0774530
N           3.6358619    -0.7686131    -0.4023026
C           3.6375284     0.2357897     0.6492319
H           3.9205512    -0.2078823     1.6145218
H           2.6440411     0.6726427     0.7259690
H           4.3677772     1.0215316     0.4131216
C           4.9221448    -1.3751968    -0.7100320
H           4.7823410    -2.1039750    -1.5068311
H           5.3358487    -1.8735124     0.1771864
H           5.6365183    -0.6078594    -1.0360375
O           2.5620146    -2.0128642    -1.9883997
C           0.5083143    -1.5143761     0.1644345
H           0.2110697    -2.4093921    -0.4053656
H          -0.3930993    -1.0110534     0.5295735
H           1.0958140    -1.8328874     1.0320843
20
171_C5H12N2O_16-0-5-6 (-90,) energy =    -382.4850189
N           1.3147493    -0.5245999    -0.7398745
C           0.4419303    -0.2219719    -1.8805741
H           0.9681816     0.4305266    -2.5817074
H          -0.4397750     0.3078171    -1.5049663
H           0.1200099    -1.1221672    -2.4230765
C           2.5565992    -1.1052319    -1.1800063
N           3.6393455    -0.7717454    -0.4046656
C           3.5990339     0.1443693     0.7224356
H           3.7167427    -0.3860033     1.6790205
H           2.6496895     0.6773392     0.7184276
H           4.4210836     0.8671531     0.6368470
C           4.9252808    -1.3894134    -0.6871056
H           4.8129212    -2.0501911    -1.5453083
H           5.2781591    -1.9656125     0.1793366
H           5.6757325    -0.6211053    -0.9157760
O           2.6452983    -1.7909065    -2.1923870
C           0.6260246    -1.4048219     0.2153171
H           0.3193285    -2.3595020    -0.2426549
H          -0.2669713    -0.8955278     0.5926862
H           1.2790322    -1.6219308     1.0664870
20
171_C5H12N2O_16-0-5-6 (-75,) energy =    -382.4872395
N           1.2673471    -0.5066137    -0.7967895
C           0.3364409    -0.2875169    -1.9067742
H           0.8141330     0.3282219    -2.6710412
H          -0.5399221     0.2428300    -1.5193732
H           0.0099137    -1.2252583    -2.3791572
C           2.5280438    -1.0011458    -1.2452544
N           3.5720792    -0.7827083    -0.3744707
C           3.5155768     0.1010883     0.7766371
H           3.5669470    -0.4546718     1.7246345
H           2.5922615     0.6786488     0.7472538
H           4.3680758     0.7930199     0.7487782
C           4.8690665    -1.3654549    -0.6763607
H           4.7636712    -2.0286784    -1.5336898
H           5.2451068    -1.9305159     0.1869292
H           5.6017390    -0.5831754    -0.9196671
O           2.6790263    -1.5258805    -2.3438078
C           0.6484905    -1.3211422     0.2568400
H           0.3086955    -2.2986153    -0.1232626
H          -0.2183789    -0.7888608     0.6629420
H           1.3541071    -1.4955078     1.0727318
20
171_C5H12N2O_16-0-5-6 (-60,) energy =    -382.4887221
N           1.2811125    -0.5349106    -0.8309854
C           0.3362836    -0.3326961    -1.9274206
H           0.8018186     0.2708712    -2.7074118
H          -0.5396346     0.1963164    -1.5367343
H           0.0076911    -1.2798376    -2.3805914
C           2.5661615    -0.9319640    -1.2627100
N           3.5589941    -0.8565574    -0.3027777
C           3.5159055     0.0495043     0.8346579
H           3.5855994    -0.4899481     1.7898791
H           2.5907934     0.6252368     0.8143703
H           4.3611417     0.7505577     0.7833765
C           4.8741990    -1.3727841    -0.6475316
H           4.7730827    -2.0980227    -1.4538615
H           5.3230106    -1.8541524     0.2298960
H           5.5474525    -0.5703310    -0.9842233
O           2.7916622    -1.2848007    -2.4163813
C           0.6841406    -1.2799140     0.2803451
H           0.2634334    -2.2414956    -0.0567809
H          -0.1252029    -0.6908760     0.7264144
H           1.4259525    -1.4863527     1.0526877
20
171_C5H12N2O_16-0-5-6 (-45,) energy =    -382.4892294
N           1.2787677    -0.6134111    -0.9082508
C           0.3300061    -0.4111437    -1.9963677
H           0.8027881     0.1652563    -2.7913061
H          -0.5363543     0.1385672    -1.6118739
H          -0.0192264    -1.3628445    -2.4249615
C           2.5934942    -0.8780678    -1.3038057
N           3.5370795    -0.9024540    -0.2796851
C           3.4918248     0.0387039     0.8342787
H           3.6575903    -0.4700284     1.7931534
H           2.5269993     0.5445917     0.8627351
H           4.2734031     0.8048756     0.7183593
C           4.8783165    -1.3282952    -0.6548255
H           4.8138279    -2.1050315    -1.4163200
H           5.3877485    -1.7246036     0.2308842
H           5.4765442    -0.4985103    -1.0609772
O           2.8975422    -1.0691569    -2.4778020
C           0.6998774    -1.2774862     0.2574599
H           0.1117920    -2.1570306    -0.0485877
H           0.0329086    -0.5964816     0.8008934
H           1.4838960    -1.6173415     0.9333696
20
171_C5H12N2O_16-0-5-6 (-30,) energy =    -382.4890663
N           1.2909596    -0.7121377    -0.9594135
C           0.3503496    -0.4511348    -2.0381029
H           0.8664408     0.0614995    -2.8489116
H          -0.4670495     0.1773257    -1.6649554
H          -0.0810692    -1.3816213    -2.4370378
C           2.6273305    -0.8515715    -1.3036680
N           3.5247010    -0.9666159    -0.2303236
C           3.4861641     0.0107000     0.8571039
H           3.8174434    -0.4510070     1.7951155
H           2.4774302     0.3979230     0.9966275
H           4.1495590     0.8644650     0.6443456
C           4.8825115    -1.3388758    -0.6133672
H           4.8485618    -2.1289246    -1.3635891
H           5.4089760    -1.7034498     0.2755339
H           5.4446774    -0.4918596    -1.0347562
O           2.9993722    -0.8984656    -2.4730954
C           0.7110228    -1.2804065     0.2491737
H          -0.0430517    -2.0344826    -0.0185771
H           0.2166885    -0.5162748     0.8653577
H           1.4839090    -1.7710535     0.8410027
20
171_C5H12N2O_16-0-5-6 (-15,) energy =    -382.4882629
N           1.2818135    -0.8033423    -1.0059454
C           0.3371811    -0.4636137    -2.0571789
H           0.8901632    -0.0892749    -2.9173010
H          -0.3665393     0.3025532    -1.7053481
H          -0.2419360    -1.3456002    -2.3660828
C           2.6297626    -0.8082654    -1.3092107
N           3.5038640    -0.9999498    -0.2155532
C           3.4823142    -0.0062517     0.8609521
H           3.8964553    -0.4430246     1.7770350
H           2.4657535     0.3271963     1.0692973
H           4.0838909     0.8804848     0.6020955
C           4.8666140    -1.3454764    -0.6145806
H           4.8408126    -2.1314293    -1.3700012
H           5.4026909    -1.7104882     0.2681766
H           5.4128922    -0.4874756    -1.0337152
O           3.0411173    -0.7193452    -2.4631253
C           0.7092809    -1.2763401     0.2416185
H          -0.1143380    -1.9691001     0.0225722
H           0.3010661    -0.4580525     0.8534926
H           1.4640730    -1.8131218     0.8168089
20
171_C5H12N2O_16-0-5-6 (0,) energy =    -382.4867530
N           1.2939542    -0.8997474    -1.0640835
C           0.3543643    -0.4978542    -2.0995318
H           0.9163163    -0.2372351    -2.9948197
H          -0.2449052     0.3657200    -1.7762990
H          -0.3317529    -1.3233952    -2.3292309
C           2.6449730    -0.7646095    -1.3140123
N           3.5038304    -1.0214233    -0.2117580
C           3.4974405    -0.0238917     0.8638297
H           3.9707959    -0.4477158     1.7565441
H           2.4802141     0.2693514     1.1261906
H           4.0519764     0.8859303     0.5801788
C           4.8685730    -1.3490820    -0.6260834
H           4.8445313    -2.1274873    -1.3900507
H           5.4111412    -1.7225162     0.2490204
H           5.4060193    -0.4826118    -1.0382140
O           3.0815460    -0.5465305    -2.4408546
C           0.7137821    -1.2751837     0.2112142
H          -0.1425916    -1.9373646     0.0319016
H           0.3481260    -0.4080778     0.7826988
H           1.4490382    -1.8174027     0.8064077
20
171_C5H12N2O_16-0-5-6 (15,) energy =    -382.4882633
N           1.2880599    -0.7489654     0.0241496
C           0.2382858    -0.5444790     1.0084380
H          -0.4476502     0.2461851     0.6762202
H           0.6956517    -0.2619311     1.9554515
H          -0.3451819    -1.4641075     1.1588378
C           2.6004923    -0.7689304     0.4551017
N           3.5793140    -0.8165797    -0.5629330
C           3.6339140     0.2976008    -1.5129011
H           4.1789307     1.1586754    -1.0925010
H           2.6333148     0.6336979    -1.7846549
H           4.1508196    -0.0195525    -2.4259476
C           4.9068479    -1.1860317    -0.0761599
H           4.8297695    -2.0527989     0.5809014
H           5.3900287    -0.3735591     0.4866735
H           5.5323888    -1.4408123    -0.9385388
O           2.8972785    -0.8100944     1.6462136
C           0.8472326    -1.0794714    -1.3189572
H           0.4719240    -0.2012136    -1.8653129
H           0.0285950    -1.8095494    -1.2624988
H           1.6674912    -1.5282673    -1.8796510
20
171_C5H12N2O_16-0-5-6 (30,) energy =    -382.4890663
N           1.2740984    -0.6526152    -0.0359956
C           0.2206899    -0.5350813     0.9604765
H          -0.5721650     0.1184070     0.5774918
H           0.6357950    -0.1114915     1.8741582
H          -0.2219905    -1.5129328     1.2032044
C           2.5716564    -0.8082023     0.4287365
N           3.5772632    -0.7821551    -0.5503721
C           3.6218464     0.3142465    -1.5173499
H           4.2347416     1.1487150    -1.1401295
H           2.6218483     0.6977041    -1.7171415
H           4.0608359    -0.0294253    -2.4617878
C           4.8989604    -1.1730978    -0.0715931
H           4.8113904    -2.0455397     0.5759710
H           5.3900214    -0.3713444     0.5003215
H           5.5241563    -1.4226754    -0.9359224
O           2.8231172    -0.9844577     1.6178017
C           0.8378957    -1.0862644    -1.3556982
H           0.3872105    -0.2642227    -1.9293503
H           0.0826890    -1.8792032    -1.2563976
H           1.6813496    -1.4913773    -1.9149995
20
171_C5H12N2O_16-0-5-6 (45,) energy =    -382.4892294
N           1.2643368    -0.5488300    -0.0765722
C           0.2035725    -0.4908608     0.9216652
H          -0.6345039     0.0849042     0.5133511
H           0.5753807    -0.0028446     1.8223791
H          -0.1598090    -1.4918200     1.1999189
C           2.5387726    -0.8351114     0.4222954
N           3.5826399    -0.7239696    -0.4929966
C           3.6243173     0.3394974    -1.4910159
H           4.3672032     1.1002771    -1.2070162
H           2.6531326     0.8286261    -1.5629451
H           3.9022451    -0.0512863    -2.4788274
C           4.8902324    -1.1674865    -0.0298740
H           4.7707542    -2.0285440     0.6271319
H           5.4192147    -0.3804528     0.5288158
H           5.4990914    -1.4492418    -0.8964579
O           2.7263689    -1.1562597     1.5922950
C           0.8275766    -1.0825916    -1.3647221
H           0.2002107    -0.3545282    -1.8941275
H           0.2371527    -2.0017354    -1.2244280
H           1.6863132    -1.3279847    -1.9887368
20
171_C5H12N2O_16-0-5-6 (60,) energy =    -382.4887221
N           1.2722238    -0.4615656    -0.1438090
C           0.2145811    -0.4047000     0.8631343
H          -0.6318448     0.1510045     0.4454245
H           0.5799837     0.1118914     1.7513907
H          -0.1308060    -1.4036839     1.1683349
C           2.5173303    -0.8840973     0.3726091
N           3.6006966    -0.6807860    -0.4627743
C           3.6479961     0.3507354    -1.4876219
H           4.4627589     1.0553739    -1.2681401
H           2.7093004     0.9043061    -1.4991486
H           3.8308387    -0.0725084    -2.4854919
C           4.8881210    -1.2110106    -0.0426286
H           4.7260859    -2.0271102     0.6602879
H           5.4994436    -0.4419224     0.4527045
H           5.4385450    -1.5787848    -0.9171527
O           2.6336342    -1.3647103     1.4959065
C           0.8144252    -1.0827148    -1.3892314
H           0.0379188    -0.4601307    -1.8479384
H           0.3900232    -2.0842094    -1.2098171
H           1.6371615    -1.1848946    -2.0977849
20
171_C5H12N2O_16-0-5-6 (75,) energy =    -382.4872395
N           1.2612804    -0.4300069    -0.1757113
C           0.2155178    -0.3575653     0.8479056
H          -0.6316302     0.1991456     0.4334505
H           0.5941931     0.1731630     1.7233253
H          -0.1301914    -1.3493674     1.1733852
C           2.4832727    -0.9516734     0.3435560
N           3.6042242    -0.6155017    -0.3820026
C           3.6401822     0.3951173    -1.4244485
H           4.4647671     1.0936497    -1.2284578
H           2.7022447     0.9493909    -1.4267150
H           3.8046281    -0.0456096    -2.4188956
C           4.8798988    -1.2070758    -0.0137695
H           4.7066065    -1.9672389     0.7465669
H           5.5606485    -0.4459603     0.3927418
H           5.3587403    -1.6613430    -0.8914492
O           2.5361580    -1.5980039     1.3849115
C           0.7776972    -1.1268717    -1.3745012
H          -0.0581744    -0.5659101    -1.8061782
H           0.4294446    -2.1476356    -1.1461299
H           1.5679929    -1.1929352    -2.1261966
20
171_C5H12N2O_16-0-5-6 (90,) energy =    -382.4850189
N           1.3151259    -0.4403313    -0.2290396
C           0.3214943    -0.2875395     0.8406197
H          -0.5321233     0.2672167     0.4372284
H           0.7538479     0.2877707     1.6630463
H          -0.0279141    -1.2501806     1.2400202
C           2.5216499    -1.0468493     0.2702370
N           3.6680106    -0.6071534    -0.3440244
C           3.7168181     0.4331146    -1.3572756
H           4.5039777     1.1553056    -1.1036099
H           2.7567492     0.9452882    -1.3928817
H           3.9479239     0.0198037    -2.3502334
C           4.9357161    -1.2310745     0.0002388
H           4.7552658    -1.9890875     0.7609043
H           5.6357911    -0.4817096     0.3928426
H           5.3925574    -1.6962752    -0.8841392
O           2.5261167    -1.8440522     1.2015709
C           0.7537612    -1.2153296    -1.3452249
H          -0.1104991    -0.6811113    -1.7537216
H           0.4299864    -2.2219423    -1.0336100
H           1.4964522    -1.3206515    -2.1423388
20
171_C5H12N2O_16-0-5-6 (105,) energy =    -382.4830724
N           1.3007773    -0.4720532    -0.3306295
C           0.3952511    -0.1784765     0.7883936
H          -0.4722732     0.3632356     0.3971653
H           0.9045492     0.4651418     1.5119322
H           0.0522747    -1.0845312     1.3087340
C           2.5012668    -1.1238574     0.1553387
N           3.6646807    -0.6036367    -0.3461405
C           3.7447805     0.5161225    -1.2704114
H           4.4236919     1.2815212    -0.8708537
H           2.7520516     0.9417773    -1.4010005
H           4.1381230     0.1926560    -2.2447737
C           4.9298170    -1.2196749     0.0241203
H           4.7304189    -2.0385308     0.7135167
H           5.5842370    -0.4833112     0.5088062
H           5.4467233    -1.6041480    -0.8656056
O           2.4707231    -2.0421349     0.9661873
C           0.6348179    -1.3320812    -1.3198939
H          -0.2387387    -0.8052835    -1.7181276
H           0.3070059    -2.2922554    -0.8901430
H           1.3172036    -1.5374033    -2.1515274
20
171_C5H12N2O_16-0-5-6 (120,) energy =    -382.4824073
N           1.3290815    -0.5542151    -0.4377966
C           0.5563568    -0.0851766     0.7194829
H          -0.3258592     0.4537863     0.3581005
H           1.1630707     0.6103586     1.3087497
H           0.2307751    -0.9078748     1.3750279
C           2.5383546    -1.2195751     0.0138815
N           3.6977268    -0.6119949    -0.3855689
C           3.7708195     0.6006931    -1.1852285
H           4.2958150     1.3922605    -0.6325265
H           2.7619513     0.9293561    -1.4249597
H           4.3278155     0.4113173    -2.1132176
C           4.9712939    -1.1891937     0.0178527
H           4.7780557    -2.0919908     0.5949900
H           5.5391798    -0.4759830     0.6302375
H           5.5739326    -1.4380458    -0.8655406
O           2.5124575    -2.2404213     0.6912262
C           0.5362983    -1.4684413    -1.2693661
H          -0.3448544    -0.9322733    -1.6373722
H           0.2085141    -2.3658054    -0.7221974
H           1.1289607    -1.7848708    -2.1339120
20
171_C5H12N2O_16-0-5-6 (135,) energy =    -382.4835156
N           1.3211052    -0.6850459    -0.5028124
C           0.7002726     0.0208246     0.6201388
H          -0.1448649     0.6114158     0.2500810
H           1.4232661     0.7077612     1.0723538
H           0.3345686    -0.6645293     1.4031318
C           2.5258659    -1.3694042    -0.1025416
N           3.6816024    -0.6833730    -0.3755403
C           3.7430856     0.6136391    -1.0287563
H           4.0734725     1.3957457    -0.3297127
H           2.7577572     0.8649576    -1.4165065
H           4.4637852     0.5770980    -1.8565416
C           4.9522340    -1.2421810     0.0601606
H           4.7641031    -2.2000139     0.5426081
H           5.4514138    -0.5644719     0.7662007
H           5.6178106    -1.3909147    -0.8002926
O           2.5146491    -2.4909152     0.3921648
C           0.3925689    -1.5883442    -1.1848191
H          -0.4474832    -0.9974087    -1.5654586
H           0.0050333    -2.3838165    -0.5306437
H           0.8973739    -2.0569117    -2.0343117
20
171_C5H12N2O_16-0-5-6 (150,) energy =    -382.4864521
N           1.3188970    -0.8131594    -0.5336236
C           0.8165385     0.1003017     0.4887239
H           0.0574905     0.7608069     0.0536085
H           1.6280616     0.7213019     0.8756907
H           0.3600873    -0.4360747     1.3376471
C           2.5467123    -1.4686237    -0.2568571
N           3.6643755    -0.6665654    -0.3468761
C           3.6785828     0.6750986    -0.9007097
H           3.8369729     1.4412014    -0.1268307
H           2.7350762     0.8688302    -1.4100554
H           4.4979209     0.7609229    -1.6269304
C           4.9489526    -1.2065573     0.0668126
H           4.7909660    -2.1979308     0.4889600
H           5.4189567    -0.5540198     0.8152135
H           5.6303298    -1.2894721    -0.7913373
O           2.6152220    -2.6748253    -0.0399661
C           0.3017809    -1.6884379    -1.1065232
H          -0.4917706    -1.0645585    -1.5328583
H          -0.1435215    -2.3725312    -0.3680495
H           0.7445014    -2.2913498    -1.9013269
20
171_C5H12N2O_16-0-5-6 (165,) energy =    -382.4888790
N           1.2873211    -0.9022284    -0.5274772
C           0.8327139     0.1134010     0.4150005
H           0.2541250     0.8927354    -0.0977193
H           1.6838620     0.5788155     0.9123658
H           0.1892004    -0.3322781     1.1901676
C           2.5463977    -1.4976169    -0.3972577
N           3.6075731    -0.6193783    -0.2150219
C           3.6549522     0.7018640    -0.8265282
H           3.8865584     1.4815797    -0.0880601
H           2.6998396     0.9316587    -1.2984280
H           4.4345658     0.7304812    -1.6022242
C           4.9053454    -1.2095725     0.0766112
H           4.7634809    -2.1458521     0.6152767
H           5.4896799    -0.5153213     0.6919057
H           5.4731822    -1.4235670    -0.8415875
O           2.7074803    -2.7128438    -0.4707335
C           0.2328062    -1.7591746    -1.0503151
H          -0.5428463    -1.1307028    -1.5030727
H          -0.2316953    -2.3777715    -0.2670089
H           0.6469429    -2.4262229    -1.8063222
20
171_C5H12N2O_16-0-5-6 (180,) energy =    -382.4888808
N           1.2275053    -1.1001970    -0.7821056
C           0.6535616    -0.0324362     0.0348278
H           0.0933519     0.6803725    -0.5838334
H           1.4362576     0.5005743     0.5729202
H          -0.0397335    -0.4534193     0.7785640
C           2.5321049    -1.5486101    -0.5834493
N           3.4662355    -0.5698351    -0.2231010
C           3.5336341     0.6929115    -0.9581243
H           3.7899218     1.5197080    -0.2840277
H           2.5791486     0.9111163    -1.4362721
H           4.3020431     0.6449642    -1.7457390
C           4.7750913    -1.0830648     0.1651875
H           4.6513682    -1.9629068     0.7965096
H           5.3039927    -0.3041708     0.7253197
H           5.3858544    -1.3690438    -0.7044145
O           2.8373454    -2.7328164    -0.6893509
C           0.2620524    -2.1269185    -1.1570749
H          -0.5973963    -1.6476200    -1.6384119
H          -0.0938320    -2.6930044    -0.2830867
H           0.7243044    -2.8275850    -1.8516437
