18
406_C7H8N2O_13-0-1-9 (-165,) energy =    -456.3118277
C           1.1441867    -0.8610491     0.2189907
N           2.3374605    -0.6952301    -0.4567032
H           2.5100956    -1.2737717    -1.2702019
C           5.8737734     1.1984536     0.5421045
H           6.8365603     1.6590532     0.7388700
C           4.7680999     1.4335777     1.3620613
H           4.8501786     2.0910700     2.2234902
C           3.5492257     0.8275689     1.0755678
H           2.6652620     0.9810695     1.6781265
C           3.4966754    -0.0153007    -0.0459423
N           4.5455631    -0.2515046    -0.8461529
C           5.7027378     0.3486492    -0.5484549
H           6.5316289     0.1333807    -1.2206975
C           0.2489838    -1.9431281    -0.3656341
H          -0.7890420    -1.7116898    -0.1202001
H           0.5023237    -2.9054033     0.0954082
H           0.3535494    -2.0469387    -1.4508005
O           0.8413110    -0.2363110     1.2245767
18
406_C7H8N2O_13-0-1-9 (-150,) energy =    -456.3097536
C           1.1210369    -0.7739830     0.1813777
N           2.2656958    -0.5089534    -0.5551226
H           2.4447573    -1.1027401    -1.3574546
C           5.8934400     1.1184666     0.5832615
H           6.8787321     1.5078006     0.8186542
C           4.7816936     1.4120454     1.3761543
H           4.8815827     2.0450976     2.2538453
C           3.5338389     0.8993385     1.0377544
H           2.6427298     1.1050221     1.6141517
C           3.4599908     0.0817526    -0.1008914
N           4.5129126    -0.2072642    -0.8766948
C           5.6984610     0.3076488    -0.5324653
H           6.5305672     0.0524544    -1.1864842
C           0.3357269    -1.9799055    -0.3091046
H          -0.6879965    -1.9153241     0.0629767
H           0.7965486    -2.8897681     0.0942657
H           0.3232923    -2.0638555    -1.4014935
O           0.8048795    -0.1482895     1.1807009
18
406_C7H8N2O_13-0-1-9 (-135,) energy =    -456.3060417
C           1.0789324    -0.7022430     0.1318981
N           2.1786918    -0.3406010    -0.6456775
H           2.3582644    -0.9387428    -1.4461415
C           5.8775014     1.0204202     0.6181008
H           6.8790858     1.3401287     0.8871508
C           4.7665445     1.3623387     1.3931465
H           4.8838811     1.9646375     2.2900840
C           3.4984625     0.9409127     1.0081390
H           2.6063168     1.1899065     1.5664407
C           3.4033648     0.1577285    -0.1526096
N           4.4540026    -0.1760729    -0.9114986
C           5.6604859     0.2552944    -0.5251766
H           6.4911842    -0.0331111    -1.1670016
C           0.4378657    -2.0217682    -0.2644439
H          -0.5681063    -2.0774908     0.1548144
H           1.0402076    -2.8359776     0.1564651
H           0.3907376    -2.1658095    -1.3498022
O           0.7287131    -0.0736233     1.1160506
18
406_C7H8N2O_13-0-1-9 (-120,) energy =    -456.3008251
C           1.0494214    -0.6178743     0.0765537
N           2.1173785    -0.1834638    -0.7260039
H           2.2933444    -0.7741227    -1.5345137
C           5.8750647     0.9129614     0.6274118
H           6.8889986     1.1647667     0.9210683
C           4.7733608     1.2930423     1.3989209
H           4.9110341     1.8578797     2.3171002
C           3.4904535     0.9600202     0.9799924
H           2.6045272     1.2475207     1.5310210
C           3.3686027     0.2209224    -0.2071599
N           4.4090647    -0.1485247    -0.9618436
C           5.6323653     0.2014311    -0.5444912
H           6.4550276    -0.1120182    -1.1848749
C           0.5767829    -2.0336356    -0.2039726
H          -0.3947381    -2.1977950     0.2652260
H           1.3069016    -2.7233336     0.2369792
H           0.5107497    -2.2602304    -1.2743615
O           0.6396267     0.0328636     1.0197199
18
406_C7H8N2O_13-0-1-9 (-105,) energy =    -456.2946704
C           0.9998136    -0.5497703     0.0209610
N           2.0382281    -0.0345000    -0.7966617
H           2.2083137    -0.6164834    -1.6144795
C           5.8272205     0.8136877     0.6544258
H           6.8462911     1.0047743     0.9747561
C           4.7308805     1.2240119     1.4190111
H           4.8780423     1.7520641     2.3573885
C           3.4427446     0.9695548     0.9644630
H           2.5615271     1.2881179     1.5074517
C           3.3067935     0.2757458    -0.2485800
N           4.3414981    -0.1235250    -0.9946055
C           5.5726872     0.1534467    -0.5442981
H           6.3913097    -0.1799607    -1.1797456
C           0.7230876    -2.0330943    -0.1434948
H          -0.1994893    -2.2997086     0.3749024
H           1.5618483    -2.5767564     0.3088190
H           0.6593516    -2.3433934    -1.1929490
O           0.4989628     0.1144532     0.9053307
18
406_C7H8N2O_13-0-1-9 (-90,) energy =    -456.2886650
C           1.0140562    -0.5669042    -0.4916982
N           2.3461425    -0.7108475    -1.0019454
H           2.3539879    -0.3762862    -1.9656738
C           5.7815628     0.9183237     0.6694032
H           6.7109317     1.3427229     1.0344545
C           4.7518364     0.5509929     1.5384707
H           4.8587445     0.6859161     2.6115093
C           3.5773921     0.0142096     1.0247921
H           2.7624260    -0.2622695     1.6844554
C           3.4733108    -0.1400017    -0.3688470
N           4.4485774     0.2183957    -1.2126138
C           5.5695524     0.7326461    -0.6943963
H           6.3340927     1.0129570    -1.4171239
C           0.5744306    -1.6413697     0.4793728
H          -0.2882398    -1.3051400     1.0584075
H           1.3771848    -1.9783389     1.1406136
H           0.2739181    -2.5050811    -0.1269197
O           0.2384187     0.2138231    -0.9994479
18
406_C7H8N2O_13-0-1-9 (-75,) energy =    -456.2931988
C           0.9612439    -0.6032696    -0.5461894
N           2.2847285    -0.5926413    -1.0502100
H           2.2871248    -0.2221228    -1.9993773
C           5.7588362     0.8393831     0.7131355
H           6.7014191     1.2117405     1.1004237
C           4.6919610     0.5261756     1.5569594
H           4.7801828     0.6561883     2.6322703
C           3.4998766     0.0576273     1.0157274
H           2.6530490    -0.1586725     1.6563723
C           3.4214470    -0.0947720    -0.3795093
N           4.4328940     0.2172510    -1.2003367
C           5.5654552     0.6741813    -0.6566524
H           6.3573945     0.9217406    -1.3616309
C           0.6568614    -1.6435029     0.5154706
H          -0.0891391    -1.2657508     1.2196170
H           1.5412682    -1.9980877     1.0486694
H           0.2162454    -2.4990699    -0.0100158
O           0.0826506     0.0148301    -1.1138503
18
406_C7H8N2O_13-0-1-9 (-60,) energy =    -456.2973056
C           0.9732294    -0.8660142    -0.7598344
N           2.3548982    -0.8850970    -1.0519876
H           2.4678688    -0.6544172    -2.0387977
C           5.5277353     1.0506212     0.8034787
H           6.3818678     1.5789102     1.2140434
C           4.6278620     0.3648939     1.6210626
H           4.7695286     0.3369084     2.6981345
C           3.5497873    -0.3028763     1.0501842
H           2.8651303    -0.8706587     1.6670188
C           3.3943385    -0.2388410    -0.3446061
N           4.2606427     0.4031488    -1.1398355
C           5.2990599     1.0239041    -0.5703025
H           5.9779722     1.5280220    -1.2559058
C           0.5246246    -1.4022667     0.5855675
H           0.6581409    -0.6579376     1.3797999
H           1.0923259    -2.2967618     0.8586275
H          -0.5381523    -1.6380897     0.5146126
O           0.1833157    -0.5901596    -1.6432907
18
406_C7H8N2O_13-0-1-9 (-45,) energy =    -456.3006042
C           0.9486103    -0.7100173    -0.7107212
N           2.3138977    -0.6567219    -1.0325339
H           2.4113003    -0.4251855    -2.0194795
C           5.6114326     1.0591934     0.8169065
H           6.4957916     1.5369787     1.2253401
C           4.7393707     0.3228403     1.6196124
H           4.9346015     0.2007016     2.6816359
C           3.6201244    -0.2777959     1.0523355
H           2.9610522    -0.8877964     1.6554982
C           3.3948734    -0.0942285    -0.3221608
N           4.2380143     0.5937742    -1.1056770
C           5.3160260     1.1471830    -0.5418402
H           5.9727879     1.6911352    -1.2185502
C           0.5503590    -1.0960819     0.6992443
H           0.8082989    -0.3140561     1.4222884
H           1.0523540    -2.0198307     1.0054448
H          -0.5301113    -1.2439081     0.7111676
O           0.1275847    -0.5718666    -1.6004400
18
406_C7H8N2O_13-0-1-9 (-30,) energy =    -456.3026516
C           0.9430041    -0.7873980    -0.7596503
N           2.2909081    -0.6025551    -1.0765972
H           2.3946549    -0.3946951    -2.0668212
C           5.6031714     1.0336422     0.8116248
H           6.4919066     1.4945181     1.2298446
C           4.7361084     0.2701450     1.5934231
H           4.9397470     0.1083304     2.6485285
C           3.6105188    -0.3077555     1.0145432
H           2.9572253    -0.9379031     1.6023416
C           3.3737160    -0.0743652    -0.3505629
N           4.2141894     0.6395344    -1.1154833
C           5.2972007     1.1702637    -0.5410596
H           5.9503406     1.7360981    -1.2032308
C           0.5531490    -1.0437973     0.6814726
H           0.8411307    -0.2151670     1.3372018
H           1.0304946    -1.9555076     1.0574527
H          -0.5298502    -1.1676636     0.7126871
O           0.1257196    -0.8147495    -1.6648011
18
406_C7H8N2O_13-0-1-9 (-15,) energy =    -456.3036711
C           0.9395915    -0.8396095    -0.7575443
N           2.2505341    -0.5021791    -1.0821033
H           2.3493973    -0.3116727    -2.0752765
C           5.6251286     1.0076842     0.7943390
H           6.5310079     1.4377550     1.2084481
C           4.7462505     0.2574305     1.5751391
H           4.9564616     0.0757864     2.6257253
C           3.5974354    -0.2808784     1.0033952
H           2.9340560    -0.8965340     1.5942632
C           3.3519043    -0.0247501    -0.3563913
N           4.2034226     0.6788016    -1.1207048
C           5.3060393     1.1726770    -0.5523447
H           5.9657860     1.7309785    -1.2144470
C           0.5576183    -1.0370137     0.6951575
H           0.8266141    -0.1737450     1.3124228
H           1.0507012    -1.9219949     1.1132349
H          -0.5219215    -1.1875893     0.7303083
O           0.1348765    -0.9971069    -1.6619392
18
406_C7H8N2O_13-0-1-9 (0,) energy =    -456.3038948
C           0.9518751    -0.8836724    -0.7619508
N           2.2144276    -0.3963608    -1.0765452
H           2.3214902    -0.2296309    -2.0726054
C           5.6478069     0.9764676     0.7958209
H           6.5698456     1.3729621     1.2077320
C           4.7483492     0.2494396     1.5747941
H           4.9572660     0.0534973     2.6230680
C           3.5783270    -0.2452714     1.0063573
H           2.8965238    -0.8369476     1.6001165
C           3.3350552     0.0270765    -0.3509270
N           4.2049221     0.7112345    -1.1134215
C           5.3252847     1.1645792    -0.5470942
H           5.9982214     1.7082761    -1.2081097
C           0.5531220    -1.0498293     0.6907030
H           0.7893076    -0.1639448     1.2883701
H           1.0585185    -1.9121333     1.1409205
H          -0.5222176    -1.2309726     0.7120157
O           0.1841764    -1.1519308    -1.6731314
18
406_C7H8N2O_13-0-1-9 (15,) energy =    -456.3036710
C           1.3713112    -1.9039253     0.1518322
N           2.7173522    -1.6499960    -0.0951192
H           3.2483391    -2.5118974    -0.1824015
C           5.4515044     1.4176511     0.4546541
H           6.2290078     2.1593014     0.6046488
C           4.1176751     1.7810302     0.2706108
H           3.8250487     2.8275590     0.2626931
C           3.1519076     0.7982439     0.0762990
H           2.1235884     1.0763372    -0.1065770
C           3.5613756    -0.5459374     0.0958788
N           4.8466622    -0.9037922     0.2514118
C           5.7569359     0.0581616     0.4213657
H           6.7842967    -0.2827495     0.5382820
C           0.4344777    -0.7481282     0.4379312
H           0.7961156    -0.1180334     1.2570168
H          -0.5338496    -1.1725245     0.7054014
H           0.3097303    -0.1162953    -0.4487844
O           0.9742404    -3.0573292     0.1027272
18
406_C7H8N2O_13-0-1-9 (30,) energy =    -456.3026516
C           1.3930384    -1.9056627     0.2086404
N           2.7025526    -1.6268605    -0.1900774
H           3.2405275    -2.4872945    -0.2589939
C           5.4449322     1.4119738     0.4870387
H           6.2225365     2.1464128     0.6689592
C           4.1156236     1.7854431     0.2885604
H           3.8275783     2.8331991     0.3003338
C           3.1513215     0.8105381     0.0525465
H           2.1268311     1.0934195    -0.1469109
C           3.5562712    -0.5348508     0.0492228
N           4.8362636    -0.9020299     0.2163795
C           5.7469056     0.0529553     0.4244447
H           6.7711911    -0.2941230     0.5493736
C           0.4323061    -0.7573453     0.4386594
H           0.7829840    -0.0815127     1.2259415
H          -0.5272351    -1.1844017     0.7321027
H           0.3000532    -0.1711438    -0.4774804
O           1.0380950    -3.0702358     0.2846514
18
406_C7H8N2O_13-0-1-9 (45,) energy =    -456.3006042
C           1.4130029    -1.8631333     0.2864408
N           2.6818842    -1.5745180    -0.2399524
H           3.2234356    -2.4357842    -0.2857505
C           5.4597186     1.4189989     0.5093314
H           6.2443434     2.1418763     0.7068484
C           4.1305428     1.8080786     0.3392880
H           3.8500513     2.8567107     0.3903534
C           3.1579068     0.8473505     0.0817607
H           2.1318364     1.1404917    -0.0959524
C           3.5545344    -0.4992844     0.0287300
N           4.8321821    -0.8810544     0.1698504
C           5.7519754     0.0611937     0.3988993
H           6.7750604    -0.2964500     0.5015305
C           0.4022057    -0.7400873     0.3987321
H           0.6863757    -0.0137150     1.1685022
H          -0.5576431    -1.1818503     0.6687844
H           0.3078531    -0.2061688    -0.5526456
O           1.1197996    -3.0234880     0.5153761
18
406_C7H8N2O_13-0-1-9 (60,) energy =    -456.2973056
C           1.3810111    -1.8903877     0.1291834
N           2.6223044    -1.5655289    -0.4610421
H           3.1762812    -2.4201036    -0.5118401
C           5.3897431     1.3702291     0.5285293
H           6.1704546     2.0798329     0.7818024
C           4.0532864     1.7584383     0.4207720
H           3.7631288     2.7933789     0.5809044
C           3.0867995     0.8152342     0.0886030
H           2.0522394     1.1080638    -0.0361044
C           3.4975590    -0.5143879    -0.1039705
N           4.7794048    -0.8946223    -0.0184151
C           5.6935456     0.0327049     0.2855967
H           6.7214379    -0.3217089     0.3397914
C           0.2876329    -0.8401765     0.1065259
H           0.4238394    -0.1007721     0.9048923
H          -0.6654831    -1.3454762     0.2689590
H           0.2753127    -0.3095654    -0.8501698
O           1.1699084    -3.0379240     0.4743713
18
406_C7H8N2O_13-0-1-9 (75,) energy =    -456.2931988
C           1.4046425    -1.7148450     0.4179261
N           2.6882542    -1.6075654    -0.1707960
H           3.1966385    -2.4817869    -0.0463351
C           5.5237444     1.3968688     0.2327828
H           6.3196116     2.1304265     0.3075716
C           4.1984947     1.7201599     0.5286820
H           3.9321992     2.7233109     0.8507918
C           3.2118492     0.7458428     0.4248973
H           2.1844111     0.9745983     0.6825219
C           3.5941161    -0.5411962     0.0084060
N           4.8645993    -0.8672393    -0.2630889
C           5.7961836     0.0845104    -0.1473474
H           6.8151919    -0.2272177    -0.3707211
C           0.3196936    -0.8358683    -0.1754894
H          -0.3943376    -0.5348628     0.5956077
H          -0.2165782    -1.4578706    -0.9019873
H           0.7038737     0.0391071    -0.7037224
O           1.1503060    -2.6309309     1.1744391
18
406_C7H8N2O_13-0-1-9 (90,) energy =    -456.2886650
C           1.4438080    -1.6448387     0.4433533
N           2.6708931    -1.5322325    -0.2895241
H           3.1737886    -2.4155967    -0.2027561
C           5.5922514     1.3632923     0.2860735
H           6.4075510     2.0686757     0.4078279
C           4.2653640     1.7277599     0.5249834
H           4.0174477     2.7365784     0.8441514
C           3.2540852     0.7890710     0.3591513
H           2.2203398     1.0514133     0.5548890
C           3.6137863    -0.5073548    -0.0491853
N           4.8825579    -0.8717149    -0.2705382
C           5.8383580     0.0493838    -0.1043757
H           6.8551991    -0.2915899    -0.2919986
C           0.2657096    -0.9036680    -0.1511844
H          -0.5165624    -0.7634179     0.5977564
H          -0.1285527    -1.5386822    -0.9544340
H           0.5429094     0.0514359    -0.6052096
O           1.3219496    -2.4706422     1.3220780
18
406_C7H8N2O_13-0-1-9 (105,) energy =    -456.2946704
C           1.2609090    -1.1922850     0.5770654
N           2.6394968    -1.5121941     0.4799144
H           2.8326690    -2.1512117    -0.2886985
C           5.5979474     1.3746900     0.1717360
H           6.4035723     2.0897022     0.0399889
C           4.5857163     1.5785387     1.1144711
H           4.5872341     2.4642006     1.7442690
C           3.5801367     0.6305091     1.2583767
H           2.7880974     0.7302784     1.9902104
C           3.6183393    -0.4906740     0.4141222
N           4.5775187    -0.7045915    -0.4918499
C           5.5472095     0.2142705    -0.5954104
H           6.3152645     0.0050410    -1.3379832
C           0.4600790    -1.3893660    -0.6971882
H          -0.6066830    -1.3024449    -0.4840451
H           0.6615518    -2.3497564    -1.1858055
H           0.7544791    -0.5973213    -1.3969592
O           0.8049920    -0.6380413     1.5564177
18
406_C7H8N2O_13-0-1-9 (120,) energy =    -456.3008251
C           1.2523887    -1.1177505     0.5095364
N           2.6153789    -1.4076225     0.3318325
H           2.8063339    -2.0352244    -0.4448127
C           5.6897575     1.3660533     0.2378179
H           6.5268398     2.0519462     0.1569167
C           4.6577128     1.5752888     1.1568097
H           4.6745123     2.4369053     1.8189144
C           3.6098347     0.6653559     1.2357316
H           2.7976980     0.7717690     1.9430253
C           3.6307661    -0.4242968     0.3510588
N           4.6105549    -0.6449484    -0.5320750
C           5.6169935     0.2373391    -0.5741242
H           6.3986585     0.0244347    -1.3013024
C           0.3612387    -1.5063819    -0.6572045
H          -0.6841449    -1.4890947    -0.3444386
H           0.6038388    -2.4908402    -1.0736468
H           0.5081360    -0.7644502    -1.4516567
O           0.8442995    -0.4710250     1.4561981
18
406_C7H8N2O_13-0-1-9 (135,) energy =    -456.3060417
C           1.2205936    -1.0511912     0.4346879
N           2.5696187    -1.3015415     0.1850043
H           2.7574042    -1.9200002    -0.5979442
C           5.7413165     1.3536280     0.3317223
H           6.6062916     2.0087388     0.3111150
C           4.6840546     1.5639171     1.2204312
H           4.7079891     2.3959709     1.9190999
C           3.5981951     0.6951315     1.2216103
H           2.7618421     0.8073015     1.8980382
C           3.6126314    -0.3572399     0.2931384
N           4.6175555    -0.5790650    -0.5624861
C           5.6562540     0.2641937    -0.5316889
H           6.4557366     0.0521775    -1.2395381
C           0.2738873    -1.6207513    -0.6086483
H          -0.7353342    -1.6683013    -0.1962507
H           0.5727834    -2.6145556    -0.9607657
H           0.2694825    -0.9455990    -1.4729791
O           0.8372711    -0.3410110     1.3485147
18
406_C7H8N2O_13-0-1-9 (150,) energy =    -456.3097535
C           1.2064374    -0.9852414     0.3650546
N           2.5362689    -1.1748190     0.0208626
H           2.7262234    -1.7952119    -0.7585143
C           5.8089286     1.3244201     0.4065890
H           6.7025096     1.9389415     0.4474363
C           4.7239546     1.5525238     1.2560897
H           4.7539003     2.3581745     1.9848528
C           3.5987047     0.7387438     1.1777583
H           2.7380292     0.8694997     1.8186594
C           3.6078019    -0.2827464     0.2150403
N           4.6398086    -0.5207160    -0.6049572
C           5.7123771     0.2716452    -0.5003933
H           6.5315388     0.0478794    -1.1816961
C           0.2238111    -1.7069132    -0.5433557
H          -0.7317082    -1.8095034    -0.0265583
H           0.5793771    -2.6954899    -0.8545022
H           0.0688455    -1.1041317    -1.4464318
O           0.8442411    -0.2466342     1.2669380
18
406_C7H8N2O_13-0-1-9 (165,) energy =    -456.3118277
C           1.1747358    -0.9372412     0.2864426
N           2.4799985    -1.0465280    -0.1520632
H           2.6751150    -1.6806228    -0.9176661
C           5.8421119     1.2749847     0.4771351
H           6.7616772     1.8417159     0.5822169
C           4.7271349     1.5331971     1.2773097
H           4.7584243     2.3155679     2.0309744
C           3.5669677     0.7830242     1.1153530
H           2.6803560     0.9432118     1.7122564
C           3.5766948    -0.2130177     0.1260200
N           4.6370232    -0.4775533    -0.6498763
C           5.7395910     0.2567082    -0.4680343
H           6.5799955     0.0129859    -1.1158236
C           0.1886066    -1.7963806    -0.4904165
H          -0.6604702    -2.0284333     0.1549689
H           0.6300412    -2.7270323    -0.8623351
H          -0.1824341    -1.2266797    -1.3509261
O           0.8209947    -0.1873011     1.1840465
18
406_C7H8N2O_13-0-1-9 (180,) energy =    -456.3123230
C           1.1552048    -0.8854957     0.2318542
N           2.4222009    -0.8926793    -0.3138119
H           2.6223058    -1.5421005    -1.0647334
C           5.8762286     1.2124008     0.5368873
H           6.8208299     1.7212799     0.7000617
C           4.7416936     1.5119617     1.2938894
H           4.7822236     2.2703181     2.0712888
C           3.5483905     0.8382014     1.0547502
H           2.6447819     1.0351855     1.6138545
C           3.5487077    -0.1324199     0.0402671
N           4.6267325    -0.4339504    -0.6972025
C           5.7588822     0.2308737    -0.4447458
H           6.6124676    -0.0409267    -1.0634688
C           0.1916868    -1.8616547    -0.4277515
H          -0.5615018    -2.1529333     0.3064979
H           0.6878197    -2.7566041    -0.8172415
H          -0.3209192    -1.3647009    -1.2602510
O           0.8129211    -0.1498434     1.1461288
