24
282_C8H12N2O2_13-0-1-3 (-165,) energy =    -572.0197611
C           2.2917314    -0.2297115    -1.5914993
N           0.9619957    -0.2019202    -1.2544558
H           0.7399545    -0.1112321    -0.2709282
C          -0.0474307    -0.7426550    -2.1449224
H          -0.9585629    -0.1363496    -2.1002101
H          -0.3051390    -1.7820620    -1.8953011
H           0.3510699    -0.7173957    -3.1597735
C           3.0095072     0.2106768     0.8875976
O           1.7588984     0.1902021     1.4427645
C           1.6927590     0.3779787     2.8493474
H           0.6354169     0.3282074     3.1155552
H           2.0969337     1.3571137     3.1364889
H           2.2420232    -0.4104393     3.3797124
C           3.2257574     0.0248030    -0.4828597
N           4.6027639     0.1113908    -0.6748372
C           5.3217723    -0.0188165    -1.9385274
H           6.3836832     0.1363435    -1.7306186
H           4.9723106     0.7216579    -2.6592858
H           5.1664296    -1.0075343    -2.3725947
C           5.2078888     0.3359281     0.5207306
H           6.2828319     0.4327624     0.5816630
C           4.2542671     0.4047974     1.5249174
H           4.4469157     0.5749983     2.5736662
O           2.6789091    -0.4601328    -2.7426587
24
282_C8H12N2O2_13-0-1-3 (-150,) energy =    -572.0175514
C           2.2352671    -0.1330194    -1.6210921
N           0.8991490    -0.0327500    -1.2953679
H           0.7035801     0.0789012    -0.3069724
C          -0.0823425    -0.8000489    -2.0483550
H          -1.0659894    -0.3274796    -1.9658053
H          -0.1580999    -1.8388391    -1.6942804
H           0.2196719    -0.8118505    -3.0962214
C           2.9686875     0.2179576     0.8682013
O           1.7200491     0.2380235     1.4258260
C           1.6639233     0.3877782     2.8376188
H           0.6056023     0.3786984     3.1042394
H           2.1127064     1.3386728     3.1519775
H           2.1769007    -0.4400917     3.3435838
C           3.1767100     0.0604834    -0.5081781
N           4.5569077     0.0958889    -0.6990470
C           5.2694157    -0.0250637    -1.9673056
H           6.3362834     0.0886707    -1.7580814
H           4.9453918     0.7472304    -2.6666486
H           5.0787580    -0.9952070    -2.4278866
C           5.1702624     0.2590458     0.5014985
H           6.2484724     0.3062740     0.5640406
C           4.2205829     0.3394801     1.5088386
H           4.4206806     0.4695616     2.5619059
O           2.6130277    -0.4098154    -2.7638899
24
282_C8H12N2O2_13-0-1-3 (-135,) energy =    -572.0135334
C           2.2481814    -0.0194551    -1.6707565
N           0.8995128     0.1102019    -1.3691696
H           0.7285333     0.2805951    -0.3833373
C          -0.0315993    -0.8513484    -1.9539799
H          -1.0506373    -0.4555631    -1.9058357
H          -0.0039202    -1.8228822    -1.4384043
H           0.2368441    -1.0021979    -3.0005091
C           2.9563293     0.2240094     0.8388516
O           1.7031575     0.2730351     1.3819684
C           1.6337183     0.3833227     2.7971016
H           0.5722227     0.4063016     3.0496827
H           2.1135437     1.3068217     3.1453653
H           2.1082055    -0.4781125     3.2841017
C           3.1779473     0.1049370    -0.5406058
N           4.5624040     0.1008683    -0.7114904
C           5.2879832    -0.0016286    -1.9739153
H           6.3548857     0.0729462    -1.7479983
H           4.9973800     0.8027788    -2.6516089
H           5.0738168    -0.9499644    -2.4681329
C           5.1631851     0.1991890     0.5014698
H           6.2413745     0.2035994     0.5810268
C           4.2024272     0.2781743     1.4987634
H           4.3922725     0.3636741     2.5582219
O           2.6324898    -0.3035745    -2.8080635
24
282_C8H12N2O2_13-0-1-3 (-120,) energy =    -572.0081918
C           2.2595514     0.0865879    -1.7264996
N           0.8964105     0.2260049    -1.4454555
H           0.7403334     0.4779287    -0.4736205
C           0.0306092    -0.8945256    -1.8246660
H          -1.0165065    -0.5850039    -1.7552966
H           0.1829765    -1.7768699    -1.1849022
H           0.2429556    -1.1692228    -2.8594996
C           2.9348817     0.2291324     0.7988405
O           1.6774337     0.3046112     1.3259655
C           1.5915501     0.3754985     2.7430810
H           0.5278274     0.4268746     2.9815195
H           2.0969030     1.2714086     3.1255811
H           2.0296712    -0.5157295     3.2100039
C           3.1744150     0.1435384    -0.5817175
N           4.5620462     0.1024092    -0.7312086
C           5.3036364     0.0144453    -1.9853536
H           6.3687855     0.0442818    -1.7416343
H           5.0520771     0.8497567    -2.6410576
H           5.0644969    -0.9096627    -2.5128605
C           5.1451345     0.1428944     0.4926292
H           6.2214191     0.1078613     0.5895776
C           4.1713598     0.2217585     1.4777917
H           4.3474798     0.2676193     2.5420188
O           2.6512753    -0.1811488    -2.8632762
24
282_C8H12N2O2_13-0-1-3 (-105,) energy =    -572.0023473
C           2.2842770     0.1790659    -1.7857733
N           0.9030759     0.3184854    -1.5264305
H           0.7617738     0.6720067    -0.5830322
C           0.1220688    -0.9192977    -1.6697185
H          -0.9428937    -0.6832218    -1.5844653
H           0.3794824    -1.6745300    -0.9115465
H           0.3016335    -1.3394368    -2.6620026
C           2.9136760     0.2234363     0.7523383
O           1.6499729     0.3194530     1.2577752
C           1.5396193     0.3480150     2.6750918
H           0.4734701     0.4229860     2.8955140
H           2.0632083     1.2160985     3.0953654
H           1.9429232    -0.5700814     3.1207393
C           3.1786422     0.1744610    -0.6267941
N           4.5685138     0.0975360    -0.7499715
C           5.3318576     0.0277624    -1.9920223
H           6.3923330     0.0124485    -1.7276054
H           5.1220299     0.8935975    -2.6225052
H           5.0725846    -0.8688390    -2.5562445
C           5.1264492     0.0833042     0.4851929
H           6.1991425     0.0143012     0.6025224
C           4.1354154     0.1594927     1.4538204
H           4.2918717     0.1668225     2.5220428
O           2.6882191    -0.0525368    -2.9235684
24
282_C8H12N2O2_13-0-1-3 (-90,) energy =    -571.9978337
C           2.2320279     0.3155497    -1.6982511
N           0.8521239     0.4852861    -1.3784677
H           0.4833228     0.9689967    -2.1992486
C           0.0797661    -0.7644330    -1.2456643
H           0.1680635    -1.4204336    -2.1247154
H          -0.9740576    -0.5082471    -1.1014674
H           0.4147148    -1.3085329    -0.3586956
C           2.9016531     0.1693013     0.8198551
O           1.6631279     0.2211427     1.3659677
C           1.6072150     0.2626783     2.7843966
H           0.5491532     0.3327846     3.0427952
H           2.1388434     1.1384485     3.1787580
H           2.0323344    -0.6471862     3.2291177
C           3.1361226     0.1962483    -0.5681765
N           4.5222942     0.0797100    -0.7319198
C           5.2598992     0.0739219    -1.9904141
H           6.3182744    -0.0601101    -1.7519164
H           5.1164824     1.0108499    -2.5311225
H           4.9215089    -0.7399677    -2.6336740
C           5.1090180     0.0104453     0.4869938
H           6.1841790    -0.0658208     0.5749419
C           4.1438481     0.0604830     1.4822542
H           4.3282180     0.0181814     2.5451308
O           2.6250119     0.4351279    -2.8603239
24
282_C8H12N2O2_13-0-1-3 (-75,) energy =    -572.0024310
C           2.2352760     0.4349925    -1.7201849
N           0.8516688     0.4796320    -1.4504036
H           0.4413445     0.8963273    -2.2857387
C           0.1541971    -0.7847357    -1.1673240
H           0.2583045    -1.5208758    -1.9783643
H          -0.9090104    -0.5696459    -1.0248028
H           0.5325474    -1.2163866    -0.2391092
C           2.8809240     0.1662788     0.8028983
O           1.6413850     0.2509773     1.3482887
C           1.5844617     0.2899557     2.7667147
H           0.5288314     0.3932313     3.0241559
H           2.1438636     1.1468431     3.1638768
H           1.9792293    -0.6343650     3.2095494
C           3.1205205     0.2196572    -0.5817335
N           4.5042842     0.0857062    -0.7426081
C           5.2455332     0.0786742    -1.9991764
H           6.2956169    -0.1109764    -1.7619785
H           5.1433781     1.0328543    -2.5171045
H           4.8743116    -0.7052832    -2.6623324
C           5.0852151    -0.0343165     0.4759382
H           6.1571827    -0.1457607     0.5640323
C           4.1175206     0.0125754     1.4679221
H           4.2954925    -0.0579521     2.5304186
O           2.6601143     0.7234922    -2.8421451
24
282_C8H12N2O2_13-0-1-3 (-60,) energy =    -572.0056989
C           2.2418526     0.5155210    -1.7314092
N           0.8607313     0.4211439    -1.5443219
H           0.4376166     0.7883521    -2.3940004
C           0.2286558    -0.8396872    -1.1411852
H           0.3960850    -1.6498354    -1.8664629
H          -0.8487526    -0.6719561    -1.0511017
H           0.5982151    -1.1477567    -0.1634595
C           2.8636308     0.1490076     0.7931759
O           1.6254129     0.2716858     1.3398708
C           1.5699729     0.3068820     2.7584637
H           0.5184248     0.4440448     3.0169767
H           2.1578698     1.1431568     3.1582656
H           1.9339554    -0.6315929     3.1978312
C           3.1065588     0.2173410    -0.5885097
N           4.4869761     0.0624937    -0.7482638
C           5.2292811     0.0655891    -2.0041109
H           6.2681030    -0.1861055    -1.7755766
H           5.1732040     1.0419102    -2.4861252
H           4.8208614    -0.6754363    -2.6947495
C           5.0632760    -0.0985349     0.4686316
H           6.1311170    -0.2447088     0.5550720
C           4.0947352    -0.0469558     1.4586274
H           4.2673318    -0.1412131     2.5202000
O           2.6926434     0.9531835    -2.7946439
24
282_C8H12N2O2_13-0-1-3 (-45,) energy =    -572.0073530
C           2.2365501     0.5945365    -1.7219600
N           0.8727108     0.3709596    -1.6282542
H           0.4410115     0.7115941    -2.4820470
C           0.2677104    -0.8579941    -1.1173559
H           0.4996025    -1.7346576    -1.7402978
H          -0.8181077    -0.7244613    -1.1009656
H           0.5934667    -1.0433086    -0.0951743
C           2.8518071     0.1464367     0.7979277
O           1.6183825     0.2984676     1.3532741
C           1.5720450     0.3283821     2.7722460
H           0.5261076     0.4925964     3.0378637
H           2.1847587     1.1467163     3.1717898
H           1.9131808    -0.6214483     3.2054152
C           3.0892687     0.2283739    -0.5821765
N           4.4660717     0.0614698    -0.7491371
C           5.1998055     0.0705318    -2.0096563
H           6.2335308    -0.2120702    -1.7950590
H           5.1627653     1.0572230    -2.4715519
H           4.7689774    -0.6483123    -2.7108371
C           5.0455503    -0.1344334     0.4622818
H           6.1101221    -0.3063081     0.5404451
C           4.0818325    -0.0833829     1.4560409
H           4.2559198    -0.1972827     2.5154849
O           2.7007101     1.1558443    -2.7202720
24
282_C8H12N2O2_13-0-1-3 (-30,) energy =    -572.0078592
C           2.2911675     0.5720214    -1.7477212
N           0.9556482     0.2454549    -1.7185820
H           0.4867321     0.5983722    -2.5441950
C           0.3264412    -0.8816423    -1.0447412
H          -0.2117737    -1.4952656    -1.7772261
H          -0.3750265    -0.5574161    -0.2691715
H           1.0899140    -1.5019960    -0.5726257
C           2.8518040     0.1405542     0.7834008
O           1.6043304     0.3119261     1.3009958
C           1.5150350     0.3236390     2.7170551
H           0.4640055     0.4992695     2.9543965
H           2.1262063     1.1273052     3.1483505
H           1.8295333    -0.6368156     3.1476763
C           3.1238491     0.2053152    -0.5897967
N           4.5029067     0.0451266    -0.7231500
C           5.2590229     0.0513648    -1.9697521
H           6.2957804    -0.2010253    -1.7339542
H           5.2031114     1.0296225    -2.4474988
H           4.8593549    -0.6905224    -2.6662665
C           5.0548040    -0.1372428     0.5042650
H           6.1175037    -0.3068002     0.6084973
C           4.0672262    -0.0790406     1.4740000
H           4.2162195    -0.1817253     2.5384520
O           2.7562641     1.1924755    -2.7106555
24
282_C8H12N2O2_13-0-1-3 (-15,) energy =    -572.0077616
C           2.3007098     0.5990410    -1.7555338
N           0.9997856     0.1713355    -1.8107037
H           0.5189763     0.5454247    -2.6189173
C           0.3304155    -0.8626781    -1.0411738
H          -0.2759132    -1.4764076    -1.7170645
H          -0.3145445    -0.4517781    -0.2574541
H           1.0734745    -1.5063109    -0.5665588
C           2.8512562     0.1503212     0.7791829
O           1.6053556     0.3392161     1.2973820
C           1.5146910     0.3392911     2.7132315
H           0.4656265     0.5254063     2.9514824
H           2.1349716     1.1317538     3.1522670
H           1.8173420    -0.6285624     3.1357071
C           3.1244836     0.2141454    -0.5928527
N           4.5028780     0.0521385    -0.7244165
C           5.2572539     0.0563705    -1.9718235
H           6.2974218    -0.1811968    -1.7362333
H           5.1873345     1.0302460    -2.4564784
H           4.8664014    -0.6974948    -2.6611968
C           5.0531496    -0.1383249     0.5030751
H           6.1144392    -0.3164140     0.6071044
C           4.0647663    -0.0783385     1.4712837
H           4.2115011    -0.1837586     2.5358009
O           2.7640494     1.2832744    -2.6756036
24
282_C8H12N2O2_13-0-1-3 (0,) energy =    -572.0070075
C           2.5434153    -1.2234162    -1.4722055
N           1.1981036    -1.0722457    -1.6831093
H           0.8245200    -1.8173639    -2.2576938
C           0.2663589    -0.1038705    -1.1348918
H          -0.2307629    -0.4581404    -0.2253746
H          -0.4918495     0.1227851    -1.8924349
H           0.7981395     0.8184196    -0.8944463
C           2.9409898     0.1562275     0.7386127
O           1.7696133    -0.1297633     1.3754300
C           1.6676085     0.3160033     2.7183282
H           0.6905566    -0.0147140     3.0761383
H           1.7273015     1.4109490     2.7845077
H           2.4541356    -0.1242748     3.3452824
C           3.2354743    -0.2932675    -0.5534765
N           4.5402682     0.1162791    -0.8212088
C           5.2838884    -0.1304295    -2.0500910
H           6.2420634     0.3890429    -1.9743053
H           4.7373195     0.2558057    -2.9155918
H           5.4390028    -1.2000749    -2.1924243
C           5.0185272     0.8216765     0.2377649
H           6.0072041     1.2579654     0.2061791
C           4.0606201     0.8663580     1.2363045
H           4.1670548     1.3469426     2.1973234
O           3.1679440    -2.0896412    -2.0949884
24
282_C8H12N2O2_13-0-1-3 (15,) energy =    -572.0077624
C           2.5443040    -1.2312010    -1.4773069
N           1.1799727    -1.1527113    -1.5802334
H           0.8102753    -1.8704436    -2.1905547
C           0.2761236    -0.1030882    -1.1430514
H          -0.2588266    -0.3653519    -0.2243678
H          -0.4531345     0.0948933    -1.9367665
H           0.8395426     0.8134734    -0.9578876
C           2.9420079     0.1396815     0.7340835
O           1.7706781    -0.1486769     1.3676564
C           1.6652775     0.2946140     2.7112482
H           0.6880701    -0.0384326     3.0663411
H           1.7230399     1.3895382     2.7792754
H           2.4512720    -0.1455004     3.3389426
C           3.2393058    -0.3074675    -0.5592173
N           4.5409890     0.1129167    -0.8281573
C           5.2871754    -0.1229518    -2.0580442
H           6.2454558     0.3952533    -1.9744662
H           4.7428665     0.2711876    -2.9212972
H           5.4414117    -1.1911000    -2.2103725
C           5.0149900     0.8174027     0.2325612
H           6.0019310     1.2577374     0.2021266
C           4.0576979     0.8543936     1.2325777
H           4.1625215     1.3335978     2.1944474
O           3.1673310    -2.0562038    -2.1559116
24
282_C8H12N2O2_13-0-1-3 (30,) energy =    -572.0078592
C           2.5231237    -1.1875389    -1.4686560
N           1.1480263    -1.1801071    -1.4560488
H           0.7843099    -1.8808960    -2.0906159
C           0.2638944    -0.0671940    -1.1397473
H          -0.3497971    -0.2681879    -0.2556250
H          -0.3957726     0.1333686    -1.9925996
H           0.8546937     0.8292624    -0.9449523
C           2.9391340     0.1662823     0.7452005
O           1.7616006    -0.1025961     1.3733590
C           1.6623451     0.3316875     2.7205342
H           0.6797375     0.0112053     3.0721215
H           1.7371811     1.4250144     2.7970395
H           2.4409000    -0.1256302     3.3451448
C           3.2335341    -0.2827774    -0.5492294
N           4.5374436     0.1317908    -0.8197790
C           5.2871300    -0.1126789    -2.0461446
H           6.2327036     0.4304060    -1.9746102
H           4.7315183     0.2486268    -2.9156373
H           5.4682905    -1.1794109    -2.1788859
C           5.0176416     0.8269094     0.2435259
H           6.0093467     1.2566676     0.2156996
C           4.0611668     0.8690527     1.2447575
H           4.1703310     1.3465609     2.2069793
O           3.1315753    -1.9678457    -2.2098905
24
282_C8H12N2O2_13-0-1-3 (45,) energy =    -572.0073530
C           2.4750514    -1.2120661    -1.4333861
N           1.0959906    -1.2842684    -1.3247437
H           0.7658444    -1.9746468    -1.9923811
C           0.2131551    -0.1260011    -1.1967267
H          -0.8107960    -0.4883145    -1.0649929
H           0.2387683     0.5257122    -2.0827195
H           0.4751109     0.4533260    -0.3129433
C           2.9403728     0.1656640     0.7608119
O           1.7715399    -0.0698984     1.4174696
C           1.7183039     0.3583570     2.7703504
H           0.7376569     0.0587861     3.1446403
H           1.8215031     1.4487940     2.8508765
H           2.5021604    -0.1224935     3.3695799
C           3.2052683    -0.3092344    -0.5322818
N           4.5057630     0.0999413    -0.8365967
C           5.2344990    -0.1567521    -2.0736934
H           6.1702400     0.4063910    -2.0317091
H           4.6540724     0.1748453    -2.9380732
H           5.4358133    -1.2217495    -2.1900216
C           5.0097619     0.8084515     0.2053764
H           6.0030202     1.2321933     0.1520438
C           4.0745449     0.8704386     1.2253968
H           4.2055202     1.3622584     2.1775840
O           3.0690360    -1.9499684    -2.2269985
24
282_C8H12N2O2_13-0-1-3 (60,) energy =    -572.0056989
C           2.4617007    -1.1415093    -1.4680839
N           1.0952652    -1.3054250    -1.2285208
H           0.7796748    -2.0168861    -1.8843007
C           0.1797688    -0.1594396    -1.2107092
H          -0.8287489    -0.5270080    -0.9989475
H           0.1595015     0.3830940    -2.1676037
H           0.4558609     0.5277554    -0.4113563
C           2.9525182     0.1644163     0.7563544
O           1.7722068    -0.0481497     1.3957210
C           1.7113722     0.3730795     2.7505579
H           0.7189784     0.0947166     3.1098136
H           1.8393827     1.4602983     2.8390505
H           2.4753324    -0.1297462     3.3574774
C           3.2195402    -0.2972902    -0.5429782
N           4.5263099     0.1040111    -0.8368511
C           5.2619205    -0.1437369    -2.0720338
H           6.2097426     0.3967907    -2.0072874
H           4.6979339     0.2167286    -2.9351044
H           5.4425088    -1.2101325    -2.2094154
C           5.0353731     0.7816165     0.2217289
H           6.0377720     1.1852452     0.1842610
C           4.0956329     0.8407936     1.2386901
H           4.2297617     1.3149610     2.1993073
O           3.0142750    -1.7903655    -2.3618826
24
282_C8H12N2O2_13-0-1-3 (75,) energy =    -572.0024310
C           2.4362294    -1.0654527    -1.4829469
N           1.0992244    -1.3302582    -1.1204020
H           0.8075662    -2.0795040    -1.7475799
C           0.1206306    -0.2352420    -1.2127012
H          -0.8634979    -0.6258100    -0.9371405
H           0.0571762     0.1969435    -2.2225113
H           0.3766952     0.5510095    -0.5004555
C           2.9732816     0.1556767     0.7699256
O           1.7827552    -0.0227878     1.3959281
C           1.7213667     0.3945804     2.7519248
H           0.7170362     0.1460208     3.0995388
H           1.8825903     1.4769102     2.8461694
H           2.4625149    -0.1344531     3.3649071
C           3.2335813    -0.2940332    -0.5367749
N           4.5485361     0.0884936    -0.8252046
C           5.2807483    -0.1504423    -2.0642521
H           6.2540320     0.3385737    -1.9721208
H           4.7425108     0.2668274    -2.9176904
H           5.4117286    -1.2187374    -2.2395644
C           5.0717336     0.7300821     0.2478147
H           6.0863025     1.1033373     0.2228069
C           4.1316870     0.7943997     1.2650850
H           4.2766135     1.2483211     2.2338464
O           2.9290932    -1.6026641    -2.4784385
24
282_C8H12N2O2_13-0-1-3 (90,) energy =    -571.9978337
C           2.4047083    -0.9494407    -1.5004362
N           1.1002237    -1.3117101    -1.0506725
H           0.8645413    -2.1082536    -1.6453521
C           0.0539185    -0.2964085    -1.2751255
H          -0.9114307    -0.7219971    -0.9853955
H          -0.0052998     0.0363715    -2.3223192
H           0.2417692     0.5696149    -0.6350752
C           2.9939569     0.1631549     0.7855123
O           1.7966724     0.0152898     1.4015618
C           1.7368712     0.4305468     2.7583143
H           0.7223578     0.2121725     3.0963301
H           1.9309746     1.5070940     2.8569379
H           2.4555072    -0.1229941     3.3766005
C           3.2430854    -0.2645907    -0.5325552
N           4.5645109     0.1015693    -0.8182571
C           5.2934943    -0.1399662    -2.0584775
H           6.2879203     0.3003386    -1.9477874
H           4.7799019     0.3187062    -2.9049704
H           5.3805546    -1.2092425    -2.2580682
C           5.1052879     0.6980388     0.2710442
H           6.1312453     1.0397063     0.2569990
C           4.1684008     0.7611172     1.2922513
H           4.3261883     1.1907237     2.2700189
O           2.8272662    -1.3521051    -2.5860027
24
282_C8H12N2O2_13-0-1-3 (105,) energy =    -572.0023473
C           2.4243499    -0.8412560    -1.6305042
N           1.1121052    -1.1958716    -1.2475234
H           1.0478620    -1.2420654    -0.2332835
C           0.0631829    -0.2841821    -1.7283503
H           0.1273296     0.7156536    -1.2726357
H          -0.9170981    -0.7132098    -1.5000319
H           0.1494522    -0.1843098    -2.8127722
C           3.0191016     0.0940503     0.7383756
O           1.8081704    -0.1133713     1.3318843
C           1.6923745     0.3011439     2.6870775
H           0.6715467     0.0640063     2.9913090
H           1.8633210     1.3806200     2.7853884
H           2.4010909    -0.2386374     3.3279374
C           3.2799354    -0.2542764    -0.5977550
N           4.6138547     0.0897174    -0.8326168
C           5.3526466    -0.0819370    -2.0796025
H           6.3767823     0.2584921    -1.9063604
H           4.8956351     0.4964060    -2.8834200
H           5.3594102    -1.1305103    -2.3823482
C           5.1394023     0.6345719     0.2916871
H           6.1643544     0.9786766     0.3079182
C           4.1837943     0.6590898     1.2978699
H           4.3260526     1.0386477     2.2985344
O           2.7746362    -0.9114182    -2.8068388
24
282_C8H12N2O2_13-0-1-3 (120,) energy =    -572.0081918
C           2.3778963    -0.7425585    -1.6026023
N           1.0829692    -1.0859588    -1.2003382
H           0.9801423    -1.0329678    -0.1909286
C          -0.0182065    -0.3784606    -1.8605347
H          -0.0848129     0.6753179    -1.5504390
H          -0.9636754    -0.8760439    -1.6248089
H           0.1346372    -0.4185306    -2.9405640
C           3.0405544     0.1088968     0.7826941
O           1.8306345    -0.0711487     1.3896625
C           1.7485956     0.3100085     2.7566322
H           0.7243766     0.1009783     3.0701290
H           1.9594789     1.3796966     2.8813320
H           2.4465511    -0.2718239     3.3719955
C           3.2680564    -0.2120614    -0.5648488
N           4.6085107     0.0899508    -0.8129027
C           5.3220031    -0.0739150    -2.0756971
H           6.3615313     0.2193857    -1.9078050
H           4.8776663     0.5462420    -2.8550535
H           5.2813135    -1.1122132    -2.4092492
C           5.1715160     0.5865834     0.3166065
H           6.2081778     0.8936480     0.3242691
C           4.2331386     0.6179813     1.3381073
H           4.4036290     0.9653326     2.3460661
O           2.7077840    -0.7820153    -2.7887763
24
282_C8H12N2O2_13-0-1-3 (135,) energy =    -572.0135334
C           2.3412610    -0.6296160    -1.5832666
N           1.0578502    -0.9539084    -1.1657213
H           0.9211741    -0.8248614    -0.1683258
C          -0.0671008    -0.4745424    -1.9646059
H          -0.2746900     0.5920223    -1.7919556
H          -0.9647110    -1.0520032    -1.7232727
H           0.1697029    -0.6191993    -3.0196132
C           3.0597734     0.1315779     0.8173958
O           1.8476093    -0.0180210     1.4306690
C           1.7908341     0.3300626     2.8073316
H           0.7619431     0.1521977     3.1248946
H           2.0438298     1.3872439     2.9581261
H           2.4708591    -0.2940677     3.4009628
C           3.2619492    -0.1623478    -0.5386726
N           4.6082739     0.0979304    -0.7948065
C           5.3028619    -0.0589760    -2.0690184
H           6.3547836     0.1880455    -1.9037237
H           4.8765904     0.5998165    -2.8264749
H           5.2173551    -1.0850335    -2.4305280
C           5.2022255     0.5419545     0.3418320
H           6.2502069     0.8075912     0.3456247
C           4.2764037     0.5801609     1.3739587
H           4.4696232     0.8927088     2.3892337
O           2.6601377    -0.6560731    -2.7746976
24
282_C8H12N2O2_13-0-1-3 (150,) energy =    -572.0175514
C           2.3014484    -0.5120123    -1.5720739
N           1.0230817    -0.7987214    -1.1420261
H           0.8486710    -0.6205649    -0.1594376
C          -0.1033248    -0.5641006    -2.0337791
H          -0.4255116     0.4877348    -2.0282842
H          -0.9487950    -1.1926946    -1.7375541
H           0.1987695    -0.8291135    -3.0476246
C           3.0700270     0.1495711     0.8423121
O           1.8552883     0.0323627     1.4596594
C           1.8207959     0.3461543     2.8449683
H           0.7872848     0.2030524     3.1652634
H           2.1189321     1.3874669     3.0218800
H           2.4774504    -0.3212761     3.4174800
C           3.2499365    -0.1112091    -0.5222819
N           4.6016363     0.1053370    -0.7842869
C           5.2792512    -0.0394923    -2.0690590
H           6.3405667     0.1659965    -1.9068836
H           4.8704166     0.6557638    -2.8033160
H           5.1538342    -1.0507291    -2.4591664
C           5.2231949     0.4886429     0.3606479
H           6.2814694     0.7093953     0.3621587
C           4.3083605     0.5313294     1.4019695
H           4.5221038     0.8031895     2.4248658
O           2.6157009    -0.5483003    -2.7659058
24
282_C8H12N2O2_13-0-1-3 (165,) energy =    -572.0197610
C           2.3331204    -0.4011805    -1.5792430
N           1.0438608    -0.6161314    -1.1618849
H           0.8383071    -0.4257726    -0.1890681
C          -0.0556506    -0.6411519    -2.1078878
H          -0.5577866     0.3341342    -2.1839205
H          -0.7954523    -1.3928532    -1.8121839
H           0.3490117    -0.9012665    -3.0866112
C           3.1076497     0.1717636     0.8552717
O           1.8815752     0.0908017     1.4576244
C           1.8466557     0.3665190     2.8508436
H           0.8044913     0.2614628     3.1577073
H           2.1895744     1.3878126     3.0603875
H           2.4666027    -0.3458477     3.4100229
C           3.2887808    -0.0591519    -0.5134125
N           4.6495842     0.1086976    -0.7597848
C           5.3310144    -0.0238557    -2.0438515
H           6.3975227     0.1405376    -1.8691318
H           4.9528964     0.7066433    -2.7604981
H           5.1723272    -1.0179124    -2.4639980
C           5.2777263     0.4319228     0.4007663
H           6.3445801     0.6056209     0.4169137
C           4.3563637     0.4838592     1.4355748
H           4.5722506     0.7157537     2.4678365
O           2.6676552    -0.4816464    -2.7665556
24
282_C8H12N2O2_13-0-1-3 (180,) energy =    -572.0203519
C           2.3136525    -0.3080750    -1.5823908
N           1.0014942    -0.3990490    -1.2050734
H           0.7758301    -0.2585654    -0.2291188
C          -0.0548675    -0.6868451    -2.1525378
H          -0.7925297     0.1252709    -2.1870557
H          -0.5759433    -1.6194673    -1.9001595
H           0.4037294    -0.7918673    -3.1366271
C           3.0554259     0.1965015     0.8774705
O           1.8144348     0.1445912     1.4529362
C           1.7617301     0.3766385     2.8533638
H           0.7107855     0.2985592     3.1376184
H           2.1353067     1.3781601     3.1023273
H           2.3459100    -0.3742183     3.4006661
C           3.2570846    -0.0091675    -0.4919948
N           4.6268792     0.1198290    -0.7078862
C           5.3315684    -0.0149836    -1.9791751
H           6.3948650     0.1482341    -1.7849133
H           4.9682317     0.7166404    -2.7021013
H           5.1781778    -1.0084324    -2.4029025
C           5.2419788     0.3918641     0.4729520
H           6.3136274     0.5275281     0.5140824
C           4.3019561     0.4498191     1.4903974
H           4.5043670     0.6495858     2.5320819
O           2.6833657    -0.4646922    -2.7522257
