24
282_C8H12N2O2_21-7-8-9 (-165,) energy =    -572.0043387
C           2.5300116    -0.7823113    -1.0363389
N           1.2665651    -0.2422089    -1.0752359
H           1.1601768     0.7075289    -0.7487543
C           0.2452487    -0.7915274    -1.9507527
H           0.3584945    -0.4519423    -2.9893670
H          -0.7433364    -0.4977574    -1.5864844
H           0.3270279    -1.8796887    -1.9432455
C           3.4378309     0.5249405     1.1029975
O           2.4867395     0.5301816     2.0788602
C           1.3894748    -0.3686416     2.0253425
H           0.9882123    -0.4069411     3.0412403
H           1.7108260    -1.3725653     1.7209350
H           0.6063142    -0.0290608     1.3404445
C           3.4960676    -0.0709607    -0.1667380
N           4.7817099     0.1816716    -0.6582361
C           5.2924883    -0.2057255    -1.9662812
H           6.3517987     0.0583599    -2.0057254
H           4.7671098     0.3219944    -2.7706358
H           5.1665605    -1.2775511    -2.1178956
C           5.4622521     0.9521314     0.2353205
H           6.4735866     1.2706276     0.0234333
C           4.6674205     1.1894871     1.3358491
H           4.9346670     1.7213577     2.2373471
O           2.8300075    -1.7648057    -1.7172266
24
282_C8H12N2O2_21-7-8-9 (-150,) energy =    -572.0066078
C           2.4310890    -0.7430305    -1.0680960
N           1.1480730    -0.2482588    -1.0138683
H           1.0261724     0.6691526    -0.6075927
C           0.1268909    -0.7353467    -1.9260973
H           0.2141281    -0.2916244    -2.9274055
H          -0.8624232    -0.5056612    -1.5202841
H           0.2359266    -1.8162464    -2.0279186
C           3.3021765     0.5603388     1.0717355
O           2.2774882     0.6358759     1.9707018
C           1.3613308    -0.4505625     2.0834295
H           0.9301515    -0.3752974     3.0851000
H           1.8794105    -1.4118926     1.9786422
H           0.5641608    -0.4007745     1.3370374
C           3.4009258    -0.0779393    -0.1746743
N           4.7035566     0.1478890    -0.6285964
C           5.2816985    -0.3309001    -1.8782089
H           6.3066491     0.0433281    -1.9354812
H           4.7178910     0.0376481    -2.7398631
H           5.2773747    -1.4209318    -1.9128023
C           5.3579108     0.9404764     0.2644507
H           6.3837999     1.2318329     0.0861567
C           4.5241701     1.2251300     1.3270363
H           4.7651887     1.7881557     2.2170165
O           2.7379565    -1.6519867    -1.8422625
24
282_C8H12N2O2_21-7-8-9 (-135,) energy =    -572.0097712
C           2.4762599    -0.6415793    -1.1750087
N           1.1811514    -0.2162869    -0.9924004
H           1.0393639     0.6077885    -0.4228450
C           0.1238963    -0.6197732    -1.9026423
H           0.0659002     0.0276506    -2.7885693
H          -0.8386883    -0.5949574    -1.3831540
H           0.3298838    -1.6364931    -2.2400603
C           3.3389521     0.6041711     0.9840176
O           2.2388322     0.7503749     1.7907025
C           1.5082837    -0.4345122     2.1263721
H           0.7648673    -0.1241975     2.8647114
H           2.1747530    -1.1824286     2.5743281
H           1.0063523    -0.8729037     1.2601088
C           3.4614106    -0.0434518    -0.2548528
N           4.7767142     0.1556882    -0.6736558
C           5.3928419    -0.3582317    -1.8919483
H           6.4246215     0.0009035    -1.9180854
H           4.8620641    -0.0042215    -2.7786347
H           5.3761689    -1.4488427    -1.9033685
C           5.4206877     0.9417497     0.2331903
H           6.4575254     1.2096588     0.0843267
C           4.5587312     1.2553760     1.2672772
H           4.7805436     1.8366177     2.1506680
O           2.7793347    -1.4384517    -2.0660077
24
282_C8H12N2O2_21-7-8-9 (-120,) energy =    -572.0132831
C           2.4984794    -0.5547548    -1.2886966
N           1.1931811    -0.2273806    -1.0156344
H           1.0308944     0.5062610    -0.3367388
C           0.1145014    -0.6126167    -1.9063925
H          -0.0928106     0.1544458    -2.6654481
H          -0.7988475    -0.7929380    -1.3306145
H           0.4084615    -1.5290608    -2.4197779
C           3.3310138     0.6464453     0.8912520
O           2.1675991     0.8199695     1.6073938
C           1.5824711    -0.3821591     2.1278886
H           0.6960042    -0.0685344     2.6847915
H           2.2808585    -0.8850304     2.8083181
H           1.2908218    -1.0715737     1.3298627
C           3.4827251     0.0155986    -0.3509576
N           4.8172629     0.1700144    -0.7101475
C           5.4650299    -0.3398639    -1.9145655
H           6.5082652    -0.0151446    -1.8918232
H           4.9787038     0.0482884    -2.8114416
H           5.4137802    -1.4290738    -1.9495685
C           5.4550220     0.9046311     0.2448280
H           6.5071510     1.1323967     0.1449789
C           4.5618266     1.2337448     1.2488137
H           4.7682053     1.7960331     2.1481876
O           2.8140470    -1.2577109    -2.2524039
24
282_C8H12N2O2_21-7-8-9 (-105,) energy =    -572.0157842
C           2.4838668    -0.4955105    -1.3640475
N           1.1723358    -0.2503170    -1.0477068
H           0.9925371     0.4200450    -0.3095136
C           0.0918643    -0.6448873    -1.9310625
H          -0.2076233     0.1661350    -2.6094091
H          -0.7806168    -0.9508000    -1.3444569
H           0.4372774    -1.4854811    -2.5343530
C           3.2795149     0.6778552     0.8361928
O           2.0785561     0.8543657     1.4915487
C           1.6119795    -0.3117460     2.1853572
H           0.6805193    -0.0222040     2.6782341
H           2.3417488    -0.6294530     2.9400250
H           1.4220185    -1.1387265     1.4920310
C           3.4575222     0.0687565    -0.4109186
N           4.8083582     0.1769456    -0.7124408
C           5.4822589    -0.3194976    -1.9085652
H           6.5368419    -0.0430517    -1.8325910
H           5.0491689     0.1211875    -2.8081906
H           5.3847946    -1.4033019    -1.9854390
C           5.4390181     0.8477318     0.2945444
H           6.5023551     1.0357110     0.2420246
C           4.5205810     1.1837450     1.2736109
H           4.7139935     1.7153647     2.1943632
O           2.8181292    -1.1353094    -2.3652364
24
282_C8H12N2O2_21-7-8-9 (-90,) energy =    -572.0171103
C           2.4740503    -0.4495800    -1.4344445
N           1.1601009    -0.2727588    -1.0915578
H           0.9662207     0.3329201    -0.3024250
C           0.0825448    -0.6698052    -1.9763674
H          -0.2803624     0.1665691    -2.5899839
H          -0.7564809    -1.0660191    -1.3946357
H           0.4602491    -1.4459713    -2.6433481
C           3.2448242     0.6773934     0.7955716
O           2.0219944     0.8514959     1.4113141
C           1.6589919    -0.2236853     2.2875497
H           0.6995286     0.0509367     2.7327858
H           2.4073511    -0.3501358     3.0791351
H           1.5558242    -1.1647081     1.7335305
C           3.4387961     0.1000720    -0.4623796
N           4.7999197     0.1712657    -0.7222475
C           5.4905143    -0.2975040    -1.9202192
H           6.5514490    -0.0626901    -1.8031341
H           5.0985930     0.1968539    -2.8106691
H           5.3574725    -1.3726654    -2.0474791
C           5.4250446     0.7751182     0.3303058
H           6.4950424     0.9287370     0.3134085
C           4.4913755     1.1079369     1.2957768
H           4.6784850     1.6023880     2.2384145
O           2.8232937    -1.0292253    -2.4671259
24
282_C8H12N2O2_21-7-8-9 (-75,) energy =    -572.0177395
C           2.3304828    -0.3787060    -1.4479933
N           1.0168153    -0.2381473    -1.0953294
H           0.8179744     0.2627566    -0.2372549
C          -0.0652240    -0.6580014    -1.9619898
H          -0.6608414     0.1979830    -2.3047626
H          -0.7319577    -1.3631802    -1.4501629
H           0.3770534    -1.1502845    -2.8291105
C           3.0942718     0.6580226     0.8295636
O           1.8617110     0.8169533     1.4287422
C           1.6044939    -0.1125130     2.4870950
H           0.6250555     0.1468376     2.8960552
H           2.3621696    -0.0303717     3.2753314
H           1.5896329    -1.1426894     2.1091789
C           3.2905111     0.1381651    -0.4520596
N           4.6554769     0.1994368    -0.6962290
C           5.3511007    -0.2156694    -1.9110575
H           6.4130899     0.0037417    -1.7745246
H           4.9698410     0.3255721    -2.7783570
H           5.2102206    -1.2820096    -2.0927879
C           5.2804069     0.7340736     0.3928317
H           6.3529128     0.8700990     0.3925808
C           4.3442596     1.0358872     1.3655781
H           4.5349378     1.4825924     2.3311479
O           2.6911195    -0.8990458    -2.5086834
24
282_C8H12N2O2_21-7-8-9 (-60,) energy =    -572.0181903
C           2.3347612    -0.3598283    -1.5015544
N           1.0192086    -0.2615361    -1.1443140
H           0.8091301     0.1475756    -0.2418223
C          -0.0537955    -0.6735555    -2.0251394
H          -0.7052649     0.1711161    -2.2833067
H          -0.6679427    -1.4587602    -1.5658615
H           0.3985335    -1.0642988    -2.9375994
C           3.0881730     0.5702175     0.8265062
O           1.8466971     0.7167589     1.4056677
C           1.6669202    -0.0064191     2.6255643
H           0.6440856     0.1922080     2.9537394
H           2.3656685     0.3366491     3.3976528
H           1.8055971    -1.0833756     2.4680326
C           3.2883798     0.1126698    -0.4781018
N           4.6569114     0.1726599    -0.7099496
C           5.3583556    -0.1884390    -1.9385046
H           6.4219500     0.0080282    -1.7806363
H           4.9932600     0.4030838    -2.7795080
H           5.2042214    -1.2414387    -2.1776946
C           5.2786143     0.6425035     0.4088401
H           6.3525787     0.7654327     0.4246377
C           4.3391041     0.9063080     1.3895239
H           4.5338221     1.3022459     2.3760266
O           2.7042569    -0.8106708    -2.5912018
24
282_C8H12N2O2_21-7-8-9 (-45,) energy =    -572.0187388
C           2.3387497    -0.3362914    -1.5460151
N           1.0213554    -0.3016598    -1.1826015
H           0.8001599     0.0229778    -0.2494808
C          -0.0405213    -0.6837805    -2.0898458
H          -0.7207979     0.1552279    -2.2848296
H          -0.6265841    -1.5206485    -1.6886822
H           0.4213186    -0.9914360    -3.0289255
C           3.0759656     0.4744557     0.8320891
O           1.8267274     0.5922571     1.3941537
C           1.7064429     0.1036941     2.7291689
H           0.6499518     0.1880382     2.9929570
H           2.2974081     0.7067343     3.4291525
H           2.0251634    -0.9437624     2.7960982
C           3.2832077     0.0878078    -0.4948462
N           4.6544352     0.1604992    -0.7150084
C           5.3637558    -0.1445273    -1.9540499
H           6.4269668     0.0388326    -1.7784464
H           5.0072505     0.4876651    -2.7684752
H           5.2074156    -1.1843646    -2.2444957
C           5.2691993     0.5678304     0.4298055
H           6.3434823     0.6847008     0.4613997
C           4.3240386     0.7810034     1.4183849
H           4.5191288     1.1180439     2.4260993
O           2.7165333    -0.6983973    -2.6659366
24
282_C8H12N2O2_21-7-8-9 (-30,) energy =    -572.0194867
C           2.3118824    -0.3236656    -1.5840844
N           0.9963971    -0.3427846    -1.2103047
H           0.7729291    -0.0953963    -0.2548000
C          -0.0624357    -0.6976361    -2.1320609
H          -0.7744897     0.1279202    -2.2589604
H          -0.6133819    -1.5822547    -1.7872642
H           0.3986959    -0.9200239    -3.0952240
C           3.0511686     0.3763009     0.8280077
O           1.8021348     0.4506840     1.3904217
C           1.7346676     0.2029419     2.7909081
H           0.6736730     0.1814572     3.0480227
H           2.2237071     1.0036797     3.3598003
H           2.1991295    -0.7577821     3.0450278
C           3.2561549     0.0550249    -0.5174476
N           4.6279544     0.1426132    -0.7355229
C           5.3357294    -0.1036776    -1.9882952
H           6.3994452     0.0685588    -1.8045277
H           4.9797499     0.5674805    -2.7710401
H           5.1771481    -1.1280734    -2.3283019
C           5.2433112     0.4963159     0.4250371
H           6.3173310     0.6136826     0.4621014
C           4.2993916     0.6574671     1.4260245
H           4.4981173     0.9407802     2.4491886
O           2.6860273    -0.6051861    -2.7284865
24
282_C8H12N2O2_21-7-8-9 (-15,) energy =    -572.0201036
C           2.2923237    -0.3287061    -1.6065536
N           0.9789513    -0.3910361    -1.2280560
H           0.7533768    -0.2012591    -0.2603162
C          -0.0781762    -0.7132186    -2.1636278
H          -0.8041458     0.1061497    -2.2437985
H          -0.6131170    -1.6238893    -1.8645569
H           0.3823504    -0.8762946    -3.1388513
C           3.0316323     0.2772525     0.8312077
O           1.7858281     0.2928639     1.4002269
C           1.7464290     0.2903498     2.8211832
H           0.6930284     0.2196324     3.0986643
H           2.1661987     1.2182755     3.2302960
H           2.2957315    -0.5669577     3.2301623
C           3.2350954     0.0115260    -0.5273135
N           4.6063689     0.1181880    -0.7443650
C           5.3121881    -0.0751327    -2.0074578
H           6.3761088     0.0901737    -1.8185340
H           4.9540259     0.6272739    -2.7612654
H           5.1537798    -1.0847772    -2.3890592
C           5.2215283     0.4326832     0.4262932
H           6.2945259     0.5579672     0.4656814
C           4.2790512     0.5449337     1.4364270
H           4.4800744     0.7864658     2.4695866
O           2.6640861    -0.5428968    -2.7664644
24
282_C8H12N2O2_21-7-8-9 (0,) energy =    -572.0203525
C           2.2933531    -0.3312840    -1.6090190
N           0.9818947    -0.4282219    -1.2302662
H           0.7561175    -0.2883037    -0.2542623
C          -0.0740537    -0.7190076    -2.1774257
H          -0.8090792     0.0951829    -2.2193844
H          -0.5983496    -1.6479632    -1.9185868
H           0.3859150    -0.8328494    -3.1598718
C           3.0345417     0.1809833     0.8493161
O           1.7936832     0.1264122     1.4247142
C           1.7401860     0.3598688     2.8248725
H           0.6894431     0.2790460     3.1090949
H           2.1106594     1.3628075     3.0727921
H           2.3266233    -0.3885870     3.3730371
C           3.2364855    -0.0286678    -0.5194744
N           4.6059691     0.1030794    -0.7357580
C           5.3099966    -0.0286994    -2.0077382
H           6.3731768     0.1357231    -1.8138937
H           4.9450407     0.7035226    -2.7292774
H           5.1577979    -1.0216967    -2.4328909
C           5.2204476     0.3815069     0.4439149
H           6.2916325     0.5209440     0.4846570
C           4.2803887     0.4397578     1.4613351
H           4.4824488     0.6426339     2.5024848
O           2.6623974    -0.4854511    -2.7793604
24
282_C8H12N2O2_21-7-8-9 (15,) energy =    -572.0201037
C           2.3071848    -0.3333941    -1.5988220
N           1.0008060    -0.4627834    -1.2130204
H           0.7842121    -0.3693872    -0.2292857
C          -0.0610531    -0.7234616    -2.1623219
H          -0.8046121     0.0840817    -2.1628156
H          -0.5735450    -1.6679807    -1.9387288
H           0.3906625    -0.7903136    -3.1528930
C           3.0634196     0.0890720     0.8720553
O           1.8331811    -0.0342239     1.4610846
C           1.7322410     0.4242913     2.8027057
H           0.6800846     0.3343167     3.0792897
H           2.0490780     1.4714032     2.8871513
H           2.3378916    -0.1931811     3.4784423
C           3.2567177    -0.0671244    -0.5048733
N           4.6226117     0.0879946    -0.7269002
C           5.3173970     0.0145808    -2.0086453
H           6.3809957     0.1779390    -1.8162193
H           4.9420722     0.7735178    -2.6965325
H           5.1683503    -0.9609881    -2.4733645
C           5.2434501     0.3309847     0.4576467
H           6.3131411     0.4824295     0.4948420
C           4.3114688     0.3385106     1.4836812
H           4.5192175     0.5036499     2.5304545
O           2.6674278    -0.4309174    -2.7778801
24
282_C8H12N2O2_21-7-8-9 (30,) energy =    -572.0194868
C           2.3120302    -0.3238887    -1.5839996
N           1.0150691    -0.4936624    -1.1844410
H           0.8177326    -0.4589356    -0.1924831
C          -0.0594071    -0.7211078    -2.1280777
H          -0.8164430     0.0717715    -2.0712979
H          -0.5515691    -1.6854175    -1.9476817
H           0.3749929    -0.7258219    -3.1286057
C           3.0973116     0.0015795     0.8923090
O           1.8792980    -0.1762673     1.4979001
C           1.6988066     0.4939789     2.7410737
H           0.6531283     0.3479637     3.0194893
H           1.9131380     1.5656559     2.6469310
H           2.3393608     0.0633925     3.5209869
C           3.2750244    -0.0976809    -0.4911846
N           4.6364868     0.0739610    -0.7236106
C           5.3163668     0.0547858    -2.0152917
H           6.3822310     0.2094303    -1.8283546
H           4.9338909     0.8420643    -2.6664508
H           5.1615365    -0.9004225    -2.5187844
C           5.2704432     0.2761709     0.4629294
H           6.3394700     0.4340922     0.4930812
C           4.3514192     0.2347406     1.4985982
H           4.5697871     0.3581528     2.5491731
O           2.6552695    -0.3538944    -2.7715098
24
282_C8H12N2O2_21-7-8-9 (45,) energy =    -572.0187388
C           2.3335961    -0.2935223    -1.5532788
N           1.0478846    -0.5164207    -1.1457773
H           0.8718774    -0.5592574    -0.1496761
C          -0.0365673    -0.7148391    -2.0845448
H          -0.8188691     0.0444710    -1.9572363
H          -0.4917840    -1.7064650    -1.9654653
H           0.3774216    -0.6331740    -3.0904088
C           3.1443485    -0.0810039     0.9273867
O           1.9363832    -0.2987215     1.5469097
C           1.6504868     0.5579459     2.6513608
H           0.6338495     0.3183800     2.9706223
H           1.7104235     1.6131843     2.3579216
H           2.3381211     0.3752892     3.4860284
C           3.3081039    -0.1139171    -0.4601672
N           4.6655874     0.0705101    -0.6994259
C           5.3325492     0.1100564    -1.9975010
H           6.4009991     0.2507846    -1.8145115
H           4.9472576     0.9289137    -2.6066624
H           5.1685122    -0.8196404    -2.5441405
C           5.3122330     0.2184555     0.4898656
H           6.3816191     0.3751006     0.5146854
C           4.4047597     0.1251124     1.5309416
H           4.6328792     0.1934768     2.5847121
O           2.6603657    -0.2407863    -2.7442891
24
282_C8H12N2O2_21-7-8-9 (60,) energy =    -572.0181903
C           2.3223812    -0.2583079    -1.5188904
N           1.0536978    -0.5409868    -1.0964026
H           0.9096266    -0.6685212    -0.1019304
C          -0.0496641    -0.7060360    -2.0196053
H          -0.8493809     0.0185741    -1.8194558
H          -0.4730877    -1.7167809    -1.9593292
H           0.3344797    -0.5420130    -3.0272736
C           3.1789908    -0.1675624     0.9530476
O           1.9846420    -0.4041342     1.5978182
C           1.5903494     0.6153268     2.5190592
H           0.6307603     0.3002316     2.9352872
H           1.4775088     1.5814576     2.0113763
H           2.3185056     0.7195775     3.3320690
C           3.3183057    -0.1299117    -0.4364172
N           4.6706515     0.0616707    -0.6907577
C           5.3163442     0.1540314    -1.9970179
H           6.3889220     0.2774793    -1.8264549
H           4.9277087     1.0019923    -2.5624221
H           5.1358313    -0.7494253    -2.5815545
C           5.3398173     0.1454784     0.4942106
H           6.4109610     0.2913203     0.5061245
C           4.4500816     0.0045362     1.5442195
H           4.6925770     0.0119507     2.5973152
O           2.6189798    -0.1164545    -2.7101185
24
282_C8H12N2O2_21-7-8-9 (75,) energy =    -572.0177394
C           2.3116002    -0.2245513    -1.4743647
N           1.0548966    -0.5469777    -1.0424056
H           0.9451688    -0.7704262    -0.0601812
C          -0.0596559    -0.7023486    -1.9544475
H          -0.8938311    -0.0462487    -1.6761206
H          -0.4225868    -1.7381598    -1.9727567
H           0.2889231    -0.4326488    -2.9522476
C           3.2054493    -0.2454554     0.9845056
O           2.0218627    -0.4846789     1.6518693
C           1.5102791     0.6522514     2.3560355
H           0.6038611     0.3183825     2.8666708
H           1.2683121     1.4670588     1.6618841
H           2.2334861     1.0143855     3.0962827
C           3.3253133    -0.1442618    -0.4035544
N           4.6750014     0.0412408    -0.6689525
C           5.3017506     0.1862121    -1.9797470
H           6.3791193     0.2806138    -1.8217332
H           4.9210023     1.0687882    -2.4955417
H           5.0941832    -0.6833762    -2.6052405
C           5.3637576     0.0568565     0.5090957
H           6.4372210     0.1851015     0.5102285
C           4.4865526    -0.1206192     1.5639475
H           4.7379245    -0.1674331     2.6141136
O           2.5820504    -0.0116876    -2.6607128
24
282_C8H12N2O2_21-7-8-9 (90,) energy =    -572.0171103
C           2.4337007    -0.1214342    -1.4906035
N           1.1856767    -0.4802997    -1.0559180
H           1.1082676    -0.8210528    -0.1045705
C           0.0815589    -0.6614256    -1.9777524
H          -0.8500097    -0.3058140    -1.5248931
H          -0.0489225    -1.7133963    -2.2677196
H           0.2923421    -0.0813045    -2.8771898
C           3.3575946    -0.2388290     0.9527084
O           2.1863814    -0.4841871     1.6403291
C           1.5451273     0.7013499     2.1290721
H           0.6602200     0.3701503     2.6781332
H           1.2455769     1.3560121     1.3015507
H           2.2099975     1.2531664     2.8044124
C           3.4607186    -0.0778549    -0.4317839
N           4.8096412     0.0925026    -0.7086290
C           5.4181408     0.2909017    -2.0209431
H           6.4989096     0.3645436    -1.8762213
H           5.0407377     1.2012893    -2.4885209
H           5.1900558    -0.5458960    -2.6832419
C           5.5164081     0.0328819     0.4576528
H           6.5922556     0.1389731     0.4489167
C           4.6492404    -0.1747409     1.5157421
H           4.9093564    -0.2735841     2.5600731
O           2.6779418     0.1521877    -2.6695301
24
282_C8H12N2O2_21-7-8-9 (105,) energy =    -572.0157842
C           2.4295660    -0.0540039    -1.4396369
N           1.2010743    -0.4835534    -1.0076640
H           1.1546395    -0.8968723    -0.0837303
C           0.0946503    -0.6671532    -1.9271959
H          -0.8483187    -0.4004255    -1.4387519
H           0.0223873    -1.7022306    -2.2891307
H           0.2563240    -0.0148079    -2.7863670
C           3.3897446    -0.2177454     0.9897960
O           2.2387340    -0.4471516     1.7147073
C           1.4828534     0.7372857     2.0056252
H           0.6267267     0.4146726     2.6034113
H           1.1315327     1.2214573     1.0875649
H           2.0860931     1.4475550     2.5841089
C           3.4694423    -0.0279079    -0.3942498
N           4.8187778     0.0925131    -0.6978474
C           5.4044727     0.3128976    -2.0168257
H           6.4905453     0.3334731    -1.8969818
H           5.0575395     1.2561081    -2.4411277
H           5.1241401    -0.4875188    -2.7037342
C           5.5485323    -0.0419864     0.4471734
H           6.6274489     0.0194127     0.4163660
C           4.6963565    -0.2444803     1.5185254
H           4.9722346    -0.3830211     2.5541460
O           2.6438141     0.2814476    -2.6079791
24
282_C8H12N2O2_21-7-8-9 (120,) energy =    -572.0132831
C           2.4267448     0.0283623    -1.3885550
N           1.2254212    -0.4890964    -0.9707048
H           1.2133007    -0.9756344    -0.0826732
C           0.1232340    -0.6832401    -1.8942296
H          -0.8293818    -0.5445783    -1.3731362
H           0.1333713    -1.6828703    -2.3504809
H           0.2134398     0.0558666    -2.6913689
C           3.4301277    -0.1588082     1.0293701
O           2.3124152    -0.3566853     1.8091563
C           1.4399366     0.7758811     1.9294776
H           0.6305893     0.4628547     2.5937789
H           1.0265220     1.0758887     0.9618615
H           1.9720703     1.6237706     2.3783942
C           3.4789633     0.0463349    -0.3561262
N           4.8256958     0.1017040    -0.6983240
C           5.3831797     0.3254962    -2.0284854
H           6.4717608     0.2817749    -1.9425804
H           5.0781499     1.2982808    -2.4169140
H           5.0386667    -0.4385130    -2.7278871
C           5.5794918    -0.1065788     0.4182720
H           6.6588138    -0.0997475     0.3563032
C           4.7491973    -0.2886347     1.5098616
H           5.0457606    -0.4591893     2.5348470
O           2.6064395     0.4294819    -2.5414968
24
282_C8H12N2O2_21-7-8-9 (135,) energy =    -572.0097712
C           2.3801225     0.1398556    -1.3088625
N           1.2154223    -0.4944567    -0.9446554
H           1.2489330    -1.0947697    -0.1309609
C           0.1305259    -0.6732516    -1.8934240
H          -0.8192823    -0.7523047    -1.3561457
H           0.2625765    -1.5698962    -2.5146960
H           0.1045773     0.1945943    -2.5538567
C           3.4241271    -0.0878242     1.1027227
O           2.3577750    -0.2160776     1.9564345
C           1.3556251     0.8057908     1.9138545
H           0.6770669     0.5890501     2.7425223
H           0.7999420     0.8042250     0.9727126
H           1.8084123     1.7940176     2.0642419
C           3.4404736     0.1268656    -0.2839469
N           4.7814788     0.1172258    -0.6669463
C           5.3078531     0.3327039    -2.0102493
H           6.3953956     0.2387587    -1.9587139
H           5.0351161     1.3226580    -2.3782791
H           4.9117212    -0.4072056    -2.7094448
C           5.5553742    -0.1524468     0.4208621
H           6.6312889    -0.2020271     0.3264309
C           4.7505436    -0.3030932     1.5345137
H           5.0672026    -0.4925927     2.5500130
O           2.5226191     0.6478015    -2.4235037
24
282_C8H12N2O2_21-7-8-9 (150,) energy =    -572.0066078
C           2.3080114     0.2570959    -1.2394193
N           1.1766111    -0.4800489    -0.9740494
H           1.2580311    -1.2146403    -0.2846224
C           0.1071173    -0.5745238    -1.9535837
H          -0.8157718    -0.8845853    -1.4552667
H           0.3368450    -1.2884763    -2.7564630
H          -0.0376168     0.4065010    -2.4088228
C           3.3745363    -0.0276116     1.1726170
O           2.3610532    -0.0431621     2.0871888
C           1.2108841     0.7717430     1.8740199
H           0.7694861     0.9300228     2.8614609
H           0.4787186     0.2933780     1.2181538
H           1.4916223     1.7388133     1.4387000
C           3.3703566     0.1704685    -0.2171434
N           4.7067623     0.1219034    -0.6240262
C           5.2057890     0.2860234    -1.9838261
H           6.2915131     0.1664200    -1.9564561
H           4.9461347     1.2707640    -2.3740194
H           4.7799772    -0.4667342    -2.6532991
C           5.4928412    -0.1558204     0.4524757
H           6.5648389    -0.2390872     0.3383984
C           4.7074374    -0.2639612     1.5823812
H           5.0381941    -0.4301090     2.5973430
O           2.4230554     0.9068012    -2.2807408
24
282_C8H12N2O2_21-7-8-9 (165,) energy =    -572.0043387
C           2.3935403     0.3267592    -1.2263398
N           1.2955882    -0.4778047    -1.0347724
H           1.4029042    -1.2644958    -0.4106644
C           0.2098160    -0.5033346    -2.0000777
H          -0.6955916    -0.8854583    -1.5199616
H           0.4417553    -1.1281588    -2.8733824
H           0.0325052     0.5137880    -2.3534347
C           3.4966617     0.0469939     1.1850204
O           2.5349651     0.1383251     2.1461182
C           1.2598718     0.6843707     1.8449405
H           0.8201803     0.9582476     2.8073280
H           0.6071210    -0.0355952     1.3416446
H           1.3476156     1.5785311     1.2152014
C           3.4640785     0.1891080    -0.2112105
N           4.7918234     0.0996879    -0.6440696
C           5.2493405     0.1451564    -2.0263009
H           6.3417539     0.1402489    -2.0196348
H           4.8806310     1.0461865    -2.5160491
H           4.8960346    -0.7253430    -2.5910153
C           5.5980921    -0.1514563     0.4245963
H           6.6637101    -0.2740056     0.2883122
C           4.8377872    -0.1947099     1.5732145
H           5.1862010    -0.3224006     2.5877628
O           2.4808148     1.0727281    -2.2034856
24
282_C8H12N2O2_21-7-8-9 (180,) energy =    -572.0025036
C           2.5643476    -0.8315582    -1.0103957
N           1.3004043    -0.3009908    -1.0959634
H           1.1801857     0.6567856    -0.8006978
C           0.2974101    -0.8900054    -1.9667234
H           0.4272980    -0.5905397    -3.0156619
H          -0.6988121    -0.5878293    -1.6313005
H           0.3843429    -1.9766374    -1.9153584
C           3.4970828     0.4415042     1.1529528
O           2.5995647     0.3743911     2.1757078
C           1.3455608    -0.2620477     2.0126085
H           0.9201274    -0.3342798     3.0164612
H           1.4515148    -1.2678700     1.5890856
H           0.6666292     0.3193258     1.3778938
C           3.5176867    -0.0868776    -0.1478543
N           4.7867027     0.1994923    -0.6643445
C           5.2500061    -0.1062922    -2.0104811
H           6.3055250     0.1673498    -2.0750970
H           4.6923754     0.4647090    -2.7625007
H           5.1260563    -1.1691881    -2.2187649
C           5.4952717     0.9212575     0.2482576
H           6.4952160     1.2624438     0.0186075
C           4.7350925     1.0934891     1.3833957
H           5.0267099     1.5784911     2.3035413
O           2.8834258    -1.8360798    -1.6482676
