24
282_C8H12N2O2_1-0-13-14 (-165,) energy =    -572.0196722
C           2.2256665    -0.4527426    -1.5643224
N           0.9060458    -0.3009294    -1.2313272
H           0.6856553    -0.0906900    -0.2664048
C          -0.1599770    -0.6790680    -2.1368716
H          -0.9061563     0.1205635    -2.2123568
H          -0.6660035    -1.5993727    -1.8137957
H           0.2839832    -0.8490837    -3.1185171
C           2.9878869     0.1168194     0.8733720
O           1.7569315     0.0328668     1.4665855
C           1.7149290     0.2947507     2.8620766
H           0.6722820     0.1802373     3.1640895
H           2.0510652     1.3158409     3.0843038
H           2.3369336    -0.4196248     3.4163168
C           3.1793562    -0.1240350    -0.4911154
N           4.5354317     0.0736443    -0.7360440
C           5.2202440    -0.0579591    -2.0180600
H           6.2672048     0.2150971    -1.8627514
H           4.7728753     0.6016625    -2.7632168
H           5.1509130    -1.0806304    -2.3915099
C           5.1564269     0.4057086     0.4265034
H           6.2205740     0.5948793     0.4456708
C           4.2313069     0.4425019     1.4585817
H           4.4407784     0.6777801     2.4914360
O           2.5930984    -0.7990025    -2.6928350
24
282_C8H12N2O2_1-0-13-14 (-150,) energy =    -572.0174834
C           2.2784535    -0.5469400    -1.6028350
N           0.9829132    -0.1753358    -1.3507642
H           0.7645754     0.1075580    -0.4034048
C          -0.1036480    -0.5949513    -2.2160304
H          -0.8608866     0.1937786    -2.2744856
H          -0.5851860    -1.5194851    -1.8662899
H           0.3085514    -0.7745288    -3.2097048
C           3.0485529     0.0792357     0.8144327
O           1.8250850    -0.0414416     1.4172341
C           1.7861531     0.2350585     2.8098601
H           0.7526462     0.0787258     3.1245689
H           2.0798038     1.2722904     3.0184298
H           2.4442620    -0.4450594     3.3655626
C           3.2400905    -0.1940546    -0.5421916
N           4.5752139     0.0847788    -0.8143618
C           5.2405392    -0.0490657    -2.1053937
H           6.2727300     0.2891353    -1.9851066
H           4.7416128     0.5618041    -2.8606575
H           5.2209414    -1.0855508    -2.4451101
C           5.1930352     0.4788608     0.3311193
H           6.2452595     0.7266461     0.3304484
C           4.2803684     0.4863786     1.3749611
H           4.4893668     0.7575493     2.3991288
O           2.6285105    -1.0595262    -2.6706095
24
282_C8H12N2O2_1-0-13-14 (-135,) energy =    -572.0137124
C           2.2835786    -0.6577718    -1.5623516
N           1.0382715    -0.0978433    -1.4220796
H           0.8243393     0.2947018    -0.5133667
C          -0.0728866    -0.5207399    -2.2569628
H          -0.7399245     0.3264345    -2.4461814
H          -0.6553098    -1.3334862    -1.8001579
H           0.3368657    -0.8767367    -3.2029030
C           3.0605540     0.0375672     0.8301087
O           1.8468126    -0.1245842     1.4426288
C           1.8125067     0.1535666     2.8346537
H           0.7897865    -0.0439010     3.1616723
H           2.0653616     1.2025675     3.0393751
H           2.5041888    -0.4971001     3.3851408
C           3.2536857    -0.2689279    -0.5165900
N           4.5577086     0.1001145    -0.8229103
C           5.2059192    -0.0522190    -2.1193056
H           6.2197729     0.3467933    -2.0384186
H           4.6610102     0.4996657    -2.8893595
H           5.2370084    -1.1024545    -2.4142569
C           5.1682355     0.5628508     0.3022807
H           6.2035976     0.8726291     0.2771844
C           4.2730391     0.5384171     1.3604264
H           4.4790348     0.8499782     2.3737713
O           2.6062372    -1.3286272    -2.5458458
24
282_C8H12N2O2_1-0-13-14 (-120,) energy =    -572.0088368
C           2.2350937    -0.8660615    -1.4706095
N           1.0660670    -0.1495264    -1.5297647
H           0.8537578     0.4228767    -0.7225816
C          -0.0441879    -0.5838896    -2.3616952
H          -0.5822230     0.2871935    -2.7489015
H          -0.7510571    -1.2228543    -1.8144507
H           0.3685986    -1.1546326    -3.1943247
C           2.9658486    -0.0586713     0.8997349
O           1.7645714    -0.2892442     1.5134515
C           1.7228031    -0.0251889     2.9070268
H           0.7159776    -0.2867900     3.2388036
H           1.9118598     1.0357893     3.1210671
H           2.4563364    -0.6359422     3.4496569
C           3.1874520    -0.3919583    -0.4336432
N           4.4625586     0.0559576    -0.7499118
C           5.0849625    -0.0347298    -2.0634910
H           6.1649226     0.0818050    -1.9474536
H           4.7116910     0.7515226    -2.7303400
H           4.8588574    -1.0054094    -2.5056671
C           5.0377478     0.5957616     0.3611856
H           6.0495886     0.9747661     0.3268733
C           4.1426089     0.5386700     1.4170231
H           4.3275828     0.8801449     2.4248655
O           2.5257003    -1.7326147    -2.2964338
24
282_C8H12N2O2_1-0-13-14 (-105,) energy =    -572.0040261
C           2.1043987    -0.9150355    -1.2865636
N           1.0692158    -0.0618486    -1.5698624
H           0.9421083     0.7159774    -0.9362824
C          -0.0568928    -0.4710768    -2.3930456
H          -0.3991473     0.3694925    -3.0051678
H          -0.8988302    -0.8381058    -1.7907291
H           0.2855987    -1.2779092    -3.0421755
C           2.9341429    -0.0152269     1.0265471
O           1.7790167    -0.2671603     1.7134129
C           1.8191073     0.0007673     3.1049236
H           0.8423650    -0.2852841     3.5006930
H           1.9926852     1.0673556     3.3058544
H           2.6010815    -0.5878454     3.6033320
C           3.0901874    -0.3648376    -0.3081106
N           4.3371291     0.0930540    -0.7046528
C           4.8841568    -0.0417940    -2.0453268
H           5.9636638     0.1190865    -2.0037440
H           4.4414335     0.6924257    -2.7291608
H           4.6786837    -1.0449048    -2.4246535
C           4.9657029     0.6666667     0.3631287
H           5.9683522     1.0587079     0.2656415
C           4.1291560     0.6162845     1.4645535
H           4.3607702     0.9828005     2.4538759
O           2.2775941    -1.9738452    -1.8862053
24
282_C8H12N2O2_1-0-13-14 (-90,) energy =    -572.0008335
C           1.9930261    -0.9822067    -1.2437899
N           1.1303389    -0.0908261    -1.8278464
H           1.0851903     0.8318566    -1.4177028
C           0.0468433    -0.5224104    -2.6952509
H          -0.1176597     0.2159382    -3.4863562
H          -0.8912378    -0.6673982    -2.1430050
H           0.3368644    -1.4755012    -3.1395561
C           2.8700655    -0.0816921     1.0571292
O           1.7475684    -0.3790080     1.7762904
C           1.8327492    -0.1530133     3.1723168
H           0.8762732    -0.4702018     3.5930502
H           1.9933862     0.9102959     3.4004693
H           2.6424113    -0.7409669     3.6257695
C           2.9696707    -0.3445561    -0.2996296
N           4.2064051     0.1215969    -0.7182470
C           4.7445969    -0.0512004    -2.0561201
H           5.7130439     0.4502979    -2.1126533
H           4.0732048     0.3921340    -2.7988224
H           4.8731252    -1.1130554    -2.2905335
C           4.8792696     0.6367239     0.3554614
H           5.8775033     1.0349380     0.2399843
C           4.0804321     0.5361913     1.4793027
H           4.3378382     0.8740810     2.4724151
O           2.0150134    -2.1732955    -1.5323201
24
282_C8H12N2O2_1-0-13-14 (-75,) energy =    -572.0004287
C           1.8693128    -0.9962942    -1.1053672
N           1.2010466    -0.1435144    -1.9512282
H           1.2568325     0.8432267    -1.7397754
C           0.1270392    -0.6097310    -2.8126709
H           0.0825658     0.0028131    -3.7183793
H          -0.8494888    -0.5765320    -2.3111265
H           0.3363760    -1.6460083    -3.0817877
C           2.8365491    -0.1110541     1.1486234
O           1.7449888    -0.4200731     1.9044951
C           1.8816730    -0.2167947     3.2998166
H           0.9408354    -0.5405947     3.7494943
H           2.0515012     0.8426678     3.5389648
H           2.7064677    -0.8126698     3.7139907
C           2.8701177    -0.3151654    -0.2227087
N           4.1020233     0.1444265    -0.6747026
C           4.6292069    -0.0558289    -2.0136172
H           5.4924124     0.5991585    -2.1540460
H           3.8687283     0.1965193    -2.7571322
H           4.9397602    -1.0957512    -2.1692896
C           4.8220237     0.6139060     0.3890625
H           5.8219451     1.0000111     0.2485957
C           4.0660148     0.4879743     1.5393438
H           4.3600629     0.8052707     2.5290690
O           1.6733664    -2.2049349    -1.0957777
24
282_C8H12N2O2_1-0-13-14 (-60,) energy =    -572.0015013
C           1.7941195    -1.0007811    -1.0692470
N           1.2821944    -0.2233520    -2.0874161
H           1.4120586     0.7758030    -2.0036924
C           0.1768354    -0.7025944    -2.9018181
H           0.1345093    -0.1298706    -3.8326751
H          -0.7886977    -0.6196381    -2.3846834
H           0.3450165    -1.7563114    -3.1306190
C           2.8630609    -0.1390709     1.1303894
O           1.8117963    -0.4624948     1.9303089
C           1.9943537    -0.2366574     3.3171410
H           1.0785738    -0.5772203     3.8042585
H           2.1469961     0.8297215     3.5360041
H           2.8474726    -0.8074378     3.7085516
C           2.8388508    -0.3287055    -0.2461190
N           4.0458546     0.1596240    -0.7457204
C           4.5652225    -0.0764920    -2.0837929
H           5.3744700     0.6324511    -2.2763981
H           3.7765430     0.0728236    -2.8237010
H           4.9528960    -1.0972155    -2.1870937
C           4.7996608     0.6286468     0.2937120
H           5.7924422     1.0194176     0.1186524
C           4.0952191     0.4811397     1.4735079
H           4.4236086     0.7988443     2.4521906
O           1.4076165    -2.1449945    -0.8663210
24
282_C8H12N2O2_1-0-13-14 (-45,) energy =    -572.0026242
C           1.7709224    -0.9500267    -1.0619015
N           1.3961784    -0.2401720    -2.1912042
H           1.5925243     0.7522450    -2.1792510
C           0.2492376    -0.6809169    -2.9709992
H           0.2552587    -0.1737437    -3.9399648
H          -0.7048120    -0.4804562    -2.4646708
H           0.3243059    -1.7585294    -3.1259799
C           2.9023160    -0.1582541     1.1171202
O           1.8837763    -0.5231100     1.9361739
C           2.0702912    -0.2631934     3.3169580
H           1.1747867    -0.6341968     3.8189911
H           2.1790006     0.8125650     3.5143757
H           2.9506327    -0.7899144     3.7097603
C           2.8551360    -0.3301541    -0.2639693
N           4.0314403     0.2212859    -0.7822144
C           4.5805795    -0.0361335    -2.1071751
H           5.3257085     0.7315171    -2.3325950
H           3.7883460     0.0012162    -2.8555380
H           5.0589273    -1.0220499    -2.1540733
C           4.7876411     0.6974072     0.2522270
H           5.7673294     1.1156329     0.0660504
C           4.1168573     0.5037491     1.4439476
H           4.4538623     0.8191675     2.4203648
O           1.2282788    -2.0041064    -0.7530369
24
282_C8H12N2O2_1-0-13-14 (-30,) energy =    -572.0029819
C           1.7055493    -0.9104088    -1.0169433
N           1.4513245    -0.2839065    -2.2321912
H           1.7210150     0.6903717    -2.2871124
C           0.2636724    -0.6669305    -2.9833072
H           0.3232633    -0.2402666    -3.9885979
H          -0.6663515    -0.3332379    -2.5031020
H           0.2290229    -1.7552236    -3.0542608
C           2.8968309    -0.2069517     1.1445140
O           1.9083601    -0.6129933     1.9760867
C           2.0821009    -0.3110672     3.3506184
H           1.1991629    -0.7019310     3.8595290
H           2.1513758     0.7723795     3.5204802
H           2.9795034    -0.7960513     3.7582441
C           2.8344126    -0.3620406    -0.2408869
N           3.9811448     0.2508272    -0.7682392
C           4.5703238    -0.0295205    -2.0745822
H           5.2396036     0.7931507    -2.3419831
H           3.7880097    -0.1184872    -2.8275741
H           5.1439826    -0.9642261    -2.0564119
C           4.7351184     0.7310650     0.2665141
H           5.7012551     1.1783872     0.0758580
C           4.0925450     0.4923412     1.4641145
H           4.4338528     0.8021040     2.4407783
O           1.0276009    -1.8555625    -0.6301207
24
282_C8H12N2O2_1-0-13-14 (-15,) energy =    -572.0020650
C           1.6591579    -0.8527668    -0.9871701
N           1.4998915    -0.3446715    -2.2762670
H           1.8397530     0.6001204    -2.4105511
C           0.2751536    -0.6755316    -2.9946847
H           0.3691258    -0.3349462    -4.0297480
H          -0.6185041    -0.2233027    -2.5434769
H           0.1410413    -1.7583156    -2.9824360
C           2.9130618    -0.2238006     1.1465240
O           1.9529359    -0.6587583     1.9923980
C           2.1291436    -0.3381500     3.3631551
H           1.2639100    -0.7535374     3.8826835
H           2.1638578     0.7483508     3.5222110
H           3.0454271    -0.7898907     3.7667345
C           2.8364040    -0.3780314    -0.2412517
N           3.9536076     0.2868739    -0.7802448
C           4.5768292    -0.0156818    -2.0692064
H           5.1753775     0.8447910    -2.3827743
H           3.8124097    -0.2182709    -2.8175626
H           5.2284764    -0.8946013    -1.9934908
C           4.7053806     0.7799546     0.2506605
H           5.6590641     1.2502057     0.0513319
C           4.0915511     0.5096377     1.4550841
H           4.4381115     0.8210978     2.4293305
O           0.8706385    -1.6709931    -0.5261170
24
282_C8H12N2O2_1-0-13-14 (0,) energy =    -571.9996172
C           1.4305728     0.1370847    -1.0652761
N           1.4837798    -0.6505232    -2.2189273
H           2.1111987    -1.4441467    -2.1615117
C           0.2231847    -0.9242860    -2.9013514
H          -0.4728218    -1.5175416    -2.2930543
H           0.4372323    -1.4581948    -3.8315606
H          -0.2654453     0.0229999    -3.1347499
C           2.7609181     0.6520016     1.0387358
O           1.7094094     1.1190518     1.7438518
C           1.9192405     1.3198026     3.1331917
H           0.9681548     1.6773143     3.5313352
H           2.6960956     2.0741379     3.3173331
H           2.1983938     0.3849454     3.6378019
C           2.6874137     0.3112583    -0.3188776
N           3.9427484    -0.2403108    -0.6550828
C           4.5400020    -0.2181569    -1.9936016
H           5.2794822    -1.0215349    -2.0677697
H           5.0357938     0.7411266    -2.1848898
H           3.7717621    -0.3595457    -2.7512383
C           4.7566237    -0.1702086     0.4420610
H           5.7991544    -0.4488248     0.3622289
C           4.0673191     0.3526364     1.5138667
H           4.4500106     0.4796575     2.5156817
O           0.3935510     0.7077556    -0.7434523
24
282_C8H12N2O2_1-0-13-14 (15,) energy =    -572.0020650
C           1.4612772     0.2207908    -1.1001165
N           1.4719947    -0.7018449    -2.1460260
H           2.0365596    -1.5273349    -1.9847716
C           0.2269513    -0.9287055    -2.8698883
H          -0.5429083    -1.4108140    -2.2521413
H           0.4340945    -1.5544044    -3.7426872
H          -0.1680722     0.0328396    -3.2014681
C           2.7625685     0.6429271     1.0560309
O           1.6989226     1.0843670     1.7633642
C           1.9045850     1.2800503     3.1534091
H           0.9480377     1.6202415     3.5538749
H           2.6693879     2.0454684     3.3424411
H           2.1987466     0.3469005     3.6530972
C           2.6945863     0.3136119    -0.3013620
N           3.9569344    -0.2002500    -0.6523318
C           4.5278542    -0.1929612    -1.9996868
H           5.3282022    -0.9373327    -2.0481935
H           4.9421667     0.7924165    -2.2451500
H           3.7612316    -0.4357930    -2.7336754
C           4.7733427    -0.1340541     0.4431829
H           5.8188666    -0.3988135     0.3585509
C           4.0741851     0.3571372     1.5250353
H           4.4552872     0.4731810     2.5288096
O           0.4824680     0.9287316    -0.8889776
24
282_C8H12N2O2_1-0-13-14 (30,) energy =    -572.0029819
C           1.4930931     0.2749806    -1.1492284
N           1.4383827    -0.7547650    -2.0822843
H           1.9396297    -1.5983011    -1.8329542
C           0.2175689    -0.9356323    -2.8557835
H          -0.6174300    -1.3087012    -2.2471059
H           0.4114871    -1.6386269    -3.6708888
H          -0.0797644     0.0278542    -3.2728011
C           2.7510173     0.6229509     1.0603984
O           1.6674219     1.0264640     1.7649956
C           1.8660076     1.2398645     3.1526940
H           0.8986308     1.5499001     3.5519486
H           2.6042519     2.0324441     3.3357589
H           2.1925829     0.3213654     3.6598594
C           2.6965522     0.2986233    -0.2957458
N           3.9744309    -0.1567501    -0.6540244
C           4.5183376    -0.1836281    -2.0089055
H           5.3765375    -0.8613389    -2.0295794
H           4.8452479     0.8152058    -2.3228315
H           3.7622962    -0.5361698    -2.7096502
C           4.7897118    -0.0770226     0.4408649
H           5.8414246    -0.3149972     0.3563937
C           4.0706323     0.3761312     1.5279300
H           4.4461492     0.4932468     2.5337071
O           0.5927756     1.1014681    -1.0548514
24
282_C8H12N2O2_1-0-13-14 (45,) energy =    -572.0026242
C           1.5481929     0.3123339    -1.2078284
N           1.3943294    -0.7947063    -2.0266323
H           1.8268049    -1.6507454    -1.7045330
C           0.1997721    -0.9223200    -2.8479470
H          -0.6919040    -1.1708791    -2.2564275
H           0.3603011    -1.7000109    -3.5999992
H           0.0140451     0.0305123    -3.3464637
C           2.7691077     0.5708333     1.0499652
O           1.6668357     0.9253615     1.7575658
C           1.8673377     1.1822853     3.1369491
H           0.8928560     1.4688963     3.5367599
H           2.5793183     2.0040780     3.2933791
H           2.2293758     0.2892986     3.6656746
C           2.7251654     0.2669569    -0.3083095
N           4.0164005    -0.1221580    -0.6793317
C           4.5276986    -0.1857214    -2.0423699
H           5.4446315    -0.7811590    -2.0449883
H           4.7517777     0.8157534    -2.4295182
H           3.7927762    -0.6546381    -2.6974134
C           4.8328437    -0.0382354     0.4138195
H           5.8904364    -0.2448811     0.3234939
C           4.0976257     0.3649993     1.5113199
H           4.4703638     0.4758267     2.5189087
O           0.7548545     1.2456622    -1.2291672
24
282_C8H12N2O2_1-0-13-14 (60,) energy =    -572.0015013
C           1.5585050     0.3619392    -1.2323458
N           1.2846845    -0.8037886    -1.9173512
H           1.6521032    -1.6586579    -1.5218931
C           0.1221145    -0.8974419    -2.7859150
H          -0.8097579    -1.0378028    -2.2215773
H           0.2505909    -1.7343315    -3.4783081
H           0.0348231     0.0319618    -3.3511967
C           2.7353329     0.5481482     1.0706913
O           1.6120789     0.8506736     1.7752552
C           1.8002230     1.1397644     3.1495409
H           0.8140052     1.3888006     3.5461199
H           2.4750979     1.9948151     3.2917962
H           2.2018635     0.2729304     3.6932766
C           2.7091733     0.2675181    -0.2901487
N           4.0141447    -0.0504233    -0.6655004
C           4.5022133    -0.1449197    -2.0325377
H           5.4658875    -0.6605482    -2.0263637
H           4.6317116     0.8481373    -2.4796466
H           3.7978278    -0.7125769    -2.6435869
C           4.8263714     0.0410362     0.4301953
H           5.8895910    -0.1337263     0.3408388
C           4.0701913     0.3900754     1.5330455
H           4.4350663     0.4974739     2.5439498
O           0.8978168     1.3808424    -1.3908233
24
282_C8H12N2O2_1-0-13-14 (75,) energy =    -572.0004285
C           1.6335553     0.3638072    -1.2687427
N           1.2212093    -0.8525454    -1.7584106
H           1.5100530    -1.6722273    -1.2424932
C           0.0938495    -0.9662908    -2.6689236
H          -0.8600712    -1.0717988    -2.1349245
H           0.2306869    -1.8303226    -3.3263805
H           0.0502690    -0.0548650    -3.2668416
C           2.7156950     0.5220478     1.0984585
O           1.5582596     0.7874406     1.7679679
C           1.6960636     1.0890644     3.1452696
H           0.6908200     1.3046031     3.5130467
H           2.3366273     1.9676556     3.3022684
H           2.1119780     0.2393874     3.7052328
C           2.7419118     0.2700693    -0.2650523
N           4.0625001    -0.0001930    -0.6058212
C           4.5670516    -0.1258446    -1.9624189
H           5.5677775    -0.5630616    -1.9271038
H           4.6197230     0.8492199    -2.4610148
H           3.9147877    -0.7813001    -2.5452930
C           4.8412314     0.0908621     0.5147568
H           5.9091303    -0.0666951     0.4562918
C           4.0412199     0.3982635     1.5992087
H           4.3722846     0.5014496     2.6221690
O           1.1479583     1.4245846    -1.6405500
24
282_C8H12N2O2_1-0-13-14 (90,) energy =    -572.0008337
C           1.7616362     0.3356646    -1.4021093
N           1.1617612    -0.8775150    -1.6219253
H           1.3312441    -1.5985102    -0.9341537
C           0.0341318    -1.0275755    -2.5266143
H          -0.9279787    -0.9529605    -2.0024809
H           0.0865518    -1.9951382    -3.0358036
H           0.0902709    -0.2241144    -3.2622593
C           2.7581616     0.4735866     1.0191098
O           1.5747209     0.7092584     1.6590324
C           1.6679585     0.9781406     3.0469188
H           0.6500832     1.1747579     3.3900556
H           2.2947344     1.8585076     3.2443216
H           2.0759347     0.1191385     3.5984219
C           2.8337751     0.2957671    -0.3529226
N           4.1595735     0.0311457    -0.6600024
C           4.6817057    -0.1167981    -2.0071882
H           5.7444475    -0.3608523    -1.9471896
H           4.5550072     0.8088183    -2.5783210
H           4.1625428    -0.9254285    -2.5320720
C           4.9032607     0.0722610     0.4872554
H           5.9716636    -0.0888554     0.4566474
C           4.0686536     0.3379118     1.5568916
H           4.3689603     0.4146115     2.5916056
O           1.5014615     1.3358986    -2.0610995
24
282_C8H12N2O2_1-0-13-14 (105,) energy =    -572.0040263
C           1.8882146     0.2868197    -1.4261974
N           1.1027895    -0.8353489    -1.3660762
H           1.1492758    -1.3707579    -0.5094680
C          -0.0622493    -1.0009427    -2.2195988
H          -0.9867918    -0.6693365    -1.7280386
H          -0.1707279    -2.0518681    -2.5061953
H           0.0946883    -0.3947731    -3.1126708
C           2.8384029     0.4177711     1.0087074
O           1.6353459     0.5928729     1.6344698
C           1.6951279     0.8107564     3.0339878
H           0.6659232     0.9652966     3.3646530
H           2.2930323     1.6999377     3.2752859
H           2.1177316    -0.0569246     3.5599599
C           2.9467757     0.3404246    -0.3733760
N           4.2798859     0.0938991    -0.6628794
C           4.8198452    -0.0873758    -2.0009434
H           5.9039823     0.0400681    -1.9641650
H           4.3872659     0.6562817    -2.6733934
H           4.5924909    -1.0882570    -2.3872818
C           4.9951921     0.0689931     0.4998805
H           6.0658504    -0.0791469     0.4839979
C           4.1369304     0.2716528     1.5665555
H           4.4193722     0.3146311     2.6082433
O           1.8162443     1.1013701    -2.3437926
24
282_C8H12N2O2_1-0-13-14 (120,) energy =    -572.0088364
C           2.0234645     0.2187155    -1.5716224
N           1.0673375    -0.7368570    -1.3353788
H           0.9769479    -1.0487385    -0.3768451
C          -0.0885908    -0.8787254    -2.2054746
H          -0.9379521    -0.2638628    -1.8766800
H          -0.4022789    -1.9268063    -2.2370457
H           0.2059718    -0.5578858    -3.2053637
C           2.8599391     0.4279144     0.8901349
O           1.6212834     0.5476105     1.4595411
C           1.6046909     0.7510898     2.8637359
H           0.5552130     0.8561410     3.1461834
H           2.1502013     1.6630438     3.1399519
H           2.0414042    -0.1033498     3.3989677
C           3.0321251     0.3525356    -0.4891230
N           4.3866577     0.1470016    -0.7116350
C           5.0067730    -0.0458725    -2.0150785
H           6.0815456     0.1245055    -1.9190879
H           4.5786930     0.6579599    -2.7294634
H           4.8394041    -1.0651464    -2.3825787
C           5.0438415     0.1533748     0.4822005
H           6.1184369     0.0411764     0.5183946
C           4.1315443     0.3324165     1.5092353
H           4.3649795     0.3923944     2.5620823
O           2.1173315     0.8116530    -2.6471848
24
282_C8H12N2O2_1-0-13-14 (135,) energy =    -572.0137120
C           2.1563631     0.0162540    -1.7443181
N           1.0653017    -0.7322485    -1.3788004
H           0.9062704    -0.8346582    -0.3838909
C          -0.0750517    -0.8802614    -2.2665945
H          -0.8541114    -0.1283620    -2.0767481
H          -0.5125767    -1.8770006    -2.1493993
H           0.2818870    -0.7602548    -3.2901248
C           2.9641554     0.3602171     0.7136304
O           1.7196780     0.4371224     1.2793869
C           1.6885579     0.6413208     2.6842301
H           0.6344876     0.7019476     2.9619980
H           2.1931168     1.5765266     2.9592204
H           2.1602987    -0.1931255     3.2203690
C           3.1418563     0.2332786    -0.6638110
N           4.5078889     0.0901920    -0.8741710
C           5.1613152    -0.0564479    -2.1685288
H           6.2330810    -0.1765139    -1.9936011
H           4.9781373     0.8180401    -2.7953982
H           4.7803424    -0.9353667    -2.6943944
C           5.1572375     0.1833539     0.3184983
H           6.2359310     0.1278232     0.3622104
C           4.2339599     0.3563122     1.3378789
H           4.4601659     0.4580350     2.3889927
O           2.3621508     0.3715257    -2.9073956
24
282_C8H12N2O2_1-0-13-14 (150,) energy =    -572.0174896
C           2.1616497    -0.1074352    -1.6153283
N           0.9850703    -0.6736336    -1.1968946
H           0.8094655    -0.6803490    -0.1997653
C          -0.1399588    -0.8324166    -2.0992611
H          -0.8679753    -0.0138520    -2.0069226
H          -0.6518788    -1.7800339    -1.9005188
H           0.2482103    -0.8389305    -3.1184627
C           2.9740504     0.2927565     0.8360678
O           1.7366470     0.3057199     1.4221824
C           1.7152762     0.4981603     2.8292435
H           0.6643064     0.4870901     3.1241406
H           2.1614709     1.4630059     3.1022547
H           2.2501681    -0.3071943     3.3496277
C           3.1417594     0.1448105    -0.5428154
N           4.5133160     0.1186816    -0.7714066
C           5.1724617    -0.0137762    -2.0657102
H           6.2499169    -0.0567013    -1.8880251
H           4.9312309     0.8316641    -2.7119651
H           4.8484101    -0.9258739    -2.5706863
C           5.1669340     0.2809738     0.4101516
H           6.2471766     0.3076965     0.4404202
C           4.2470926     0.3972597     1.4411226
H           4.4790321     0.5350234     2.4867825
O           2.4172091     0.0980647    -2.8060999
24
282_C8H12N2O2_1-0-13-14 (165,) energy =    -572.0196661
C           2.2267437    -0.2476256    -1.6088070
N           0.9678624    -0.5924145    -1.1946708
H           0.7634192    -0.5197571    -0.2063896
C          -0.1165708    -0.8048826    -2.1317836
H          -0.8684109    -0.0060644    -2.0734674
H          -0.6129538    -1.7645677    -1.9440822
H           0.3110125    -0.8141463    -3.1351617
C           2.9904866     0.2257062     0.8491096
O           1.7488962     0.2065711     1.4255804
C           1.7072683     0.4153835     2.8300256
H           0.6545245     0.3721335     3.1151526
H           2.1177611     1.3980713     3.0950176
H           2.2643986    -0.3654476     3.3637994
C           3.1811259     0.0360734    -0.5234683
N           4.5547930     0.0997385    -0.7395314
C           5.2462071    -0.0512000    -2.0158106
H           6.3201858    -0.0108818    -1.8164557
H           4.9631912     0.7440461    -2.7070616
H           4.9921572    -1.0049969    -2.4806300
C           5.1834725     0.3322805     0.4429211
H           6.2601552     0.4195908     0.4840083
C           4.2477617     0.4212490     1.4622020
H           4.4600323     0.6009698     2.5055990
O           2.5525523    -0.2161813    -2.8009910
24
282_C8H12N2O2_1-0-13-14 (180,) energy =    -572.0203510
C           2.2956106    -0.3429961    -1.6195678
N           0.9853321    -0.4417374    -1.2375863
H           0.7614319    -0.3001353    -0.2613760
C          -0.0723297    -0.7362051    -2.1818437
H          -0.8100979     0.0755694    -2.2216523
H          -0.5927876    -1.6669193    -1.9215902
H           0.3854839    -0.8484733    -3.1654666
C           3.0413271     0.1758851     0.8361554
O           1.8019013     0.1219411     1.4147684
C           1.7523719     0.3546071     2.8153198
H           0.7025499     0.2724771     3.1025198
H           2.1223859     1.3578628     3.0625307
H           2.3413416    -0.3935052     3.3611783
C           3.2406634    -0.0368666    -0.5324823
N           4.6093932     0.0971729    -0.7523084
C           5.3114647    -0.0414221    -2.0245719
H           6.3728698     0.1399827    -1.8361339
H           4.9338677     0.6758770    -2.7541598
H           5.1724987    -1.0422173    -2.4364235
C           5.2262494     0.3777407     0.4256327
H           6.2973748     0.5183789     0.4636915
C           4.2883693     0.4373417     1.4448365
H           4.4919635     0.6443164     2.4848665
O           2.6624313    -0.4990305    -2.7903599
