16
256_C6H7NO2_0-2-12-10 (-165,) energy =    -438.0395466
N           1.4243846    -1.5591342     0.1225373
H           2.0089911    -1.8791209     0.8815804
C           1.8804367    -0.5260156    -0.6469577
O           1.2778143    -0.0627165    -1.6121059
C           0.1954279    -2.2669369    -0.1790085
H           0.3899817    -3.3108526    -0.4553165
H          -0.2757308    -1.7582479    -1.0211816
H          -0.4876097    -2.2507987     0.6783376
C           4.9503091     1.3300178     0.2564186
H           5.6825729     2.1252409     0.2557202
C           3.7712750     1.2344345    -0.5458402
H           3.4066164     1.9337248    -1.2837060
C           3.1650788     0.0588189    -0.2071813
O           3.8922950    -0.5757005     0.7727235
C           4.9730913     0.2106572     1.0340017
H           5.6564694    -0.1649104     1.7806111
16
256_C6H7NO2_0-2-12-10 (-150,) energy =    -438.0377904
N           1.4147214    -1.5075815     0.1598062
H           1.9811257    -1.7899054     0.9473017
C           1.9363141    -0.5847461    -0.7037234
O           1.3735541    -0.1977410    -1.7242777
C           0.1906109    -2.2301912    -0.1290676
H           0.3861801    -3.2846142    -0.3633901
H          -0.2723646    -1.7552445    -0.9951127
H          -0.4984414    -2.1797428     0.7213387
C           4.9186536     1.3539560     0.3105887
H           5.6015428     2.1894994     0.3748082
C           3.7503694     1.2485851    -0.5065011
H           3.3468336     1.9803954    -1.1908740
C           3.2187382     0.0135871    -0.2686515
O           3.9737112    -0.6439325     0.6751221
C           5.0054703     0.1830849     1.0024799
H           5.7111243    -0.2091446     1.7192137
16
256_C6H7NO2_0-2-12-10 (-135,) energy =    -438.0348985
N           1.4001155    -1.4232713     0.1498562
H           1.9386931    -1.6580989     0.9719508
C           1.9879121    -0.6163432    -0.7855722
O           1.4708861    -0.3147296    -1.8568629
C           0.1767761    -2.1546128    -0.1236712
H           0.3672997    -3.2215296    -0.2995612
H          -0.2686737    -1.7233153    -1.0211245
H          -0.5237322    -2.0539206     0.7122042
C           4.8816561     1.3803709     0.3661643
H           5.5153259     2.2448906     0.5063870
C           3.7219747     1.2807904    -0.4647309
H           3.2798816     2.0476144    -1.0842270
C           3.2646696    -0.0002782    -0.3453407
O           4.0488870    -0.6905858     0.5508741
C           5.0333674     0.1609072     0.9540712
H           5.7623735    -0.2541005     1.6336559
16
256_C6H7NO2_0-2-12-10 (-120,) energy =    -438.0310787
N           1.3824174    -1.3546399     0.1277762
H           1.8799416    -1.5141441     0.9928968
C           2.0381259    -0.6749553    -0.8630393
O           1.5810973    -0.4930391    -1.9861166
C           0.1689663    -2.1093713    -0.1306536
H           0.3629727    -3.1873939    -0.2076131
H          -0.2407475    -1.7569622    -1.0781008
H          -0.5614579    -1.9371670     0.6666738
C           4.8420544     1.3826090     0.4146388
H           5.4274708     2.2664061     0.6263856
C           3.6785083     1.2909184    -0.4130343
H           3.1888488     2.0864085    -0.9563741
C           3.2990207    -0.0207372    -0.4124283
O           4.1282409    -0.7399821     0.4185341
C           5.0694879     0.1266164     0.8886521
H           5.8315110    -0.3065348     1.5188733
16
256_C6H7NO2_0-2-12-10 (-105,) energy =    -438.0270897
N           1.3291455    -1.2845506     0.1279494
H           1.7283515    -1.2949494     1.0562555
C           2.0806408    -0.7480248    -0.8810957
O           1.7442263    -0.7514067    -2.0586693
C           0.1454801    -2.0859433    -0.1320377
H           0.3474462    -3.1605343    -0.0334625
H          -0.1717913    -1.8800726    -1.1550522
H          -0.6574289    -1.8108543     0.5595709
C           4.8199221     1.3769251     0.4680780
H           5.3678798     2.2707803     0.7316689
C           3.6052403     1.2960303    -0.2876458
H           3.0380852     2.1120377    -0.7127113
C           3.3041603    -0.0297355    -0.3970894
O           4.2289815    -0.7757579     0.2932084
C           5.1521868     0.0971579     0.7900897
H           5.9785492    -0.3492642     1.3221023
16
256_C6H7NO2_0-2-12-10 (-90,) energy =    -438.0256988
N           1.2263226    -1.2531707     0.1277460
H           1.3641301    -0.9832232     1.0912152
C           2.1627612    -0.8584620    -0.7831366
O           2.1197296    -1.1319547    -1.9749826
C           0.0634170    -2.0460721    -0.2303352
H           0.0653264    -3.0085632     0.2944388
H           0.1107992    -2.2251873    -1.3052093
H          -0.8659817    -1.5148103     0.0061625
C           4.8246102     1.4419225     0.4595247
H           5.3243159     2.3642789     0.7207699
C           3.4697029     1.2833256     0.0163298
H           2.7342416     2.0606888    -0.1375767
C           3.2863230    -0.0525003    -0.1878279
O           4.4417868    -0.7324560     0.0857162
C           5.3624969     0.1926684     0.4813642
H           6.3326665    -0.1997723     0.7453612
16
256_C6H7NO2_0-2-12-10 (-75,) energy =    -438.0274562
N           1.1710729    -1.2234554     0.1281280
H           1.2304531    -0.8649367     1.0704497
C           2.2245825    -0.9897198    -0.7094156
O           2.3067281    -1.4246656    -1.8501031
C          -0.0063155    -1.9693470    -0.2785211
H          -0.1157695    -2.8878538     0.3101863
H           0.1239348    -2.2351068    -1.3284062
H          -0.9152236    -1.3665678    -0.1670638
C           4.8019274     1.4082177     0.4964012
H           5.2583213     2.3470534     0.7772866
C           3.4228290     1.1684757     0.1917535
H           2.6193239     1.8920990     0.1778346
C           3.3144744    -0.1637236    -0.0931012
O           4.5453054    -0.7556324    -0.0194121
C           5.4299213     0.2088696     0.3540850
H           6.4494348    -0.1202007     0.4862943
16
256_C6H7NO2_0-2-12-10 (-60,) energy =    -438.0298484
N           1.1587488    -1.1785479     0.1100072
H           1.1859273    -0.7480266     1.0230947
C           2.2758995    -1.0885583    -0.6744152
O           2.4097057    -1.6589375    -1.7490229
C          -0.0272459    -1.9090023    -0.2977256
H          -0.1992349    -2.7808099     0.3451586
H           0.1377425    -2.2527639    -1.3197563
H          -0.9155240    -1.2672704    -0.2689010
C           4.7670454     1.3964351     0.5222475
H           5.1811868     2.3443377     0.8361543
C           3.3911431     1.0841695     0.2824971
H           2.5450487     1.7535529     0.3579646
C           3.3493855    -0.2333504    -0.0854454
O           4.6166319    -0.7433487    -0.1215155
C           5.4585386     0.2514367     0.2641464
H           6.5031589    -0.0158223     0.3155084
16
256_C6H7NO2_0-2-12-10 (-45,) energy =    -438.0318628
N           1.1395055    -1.1101058     0.0819603
H           1.1473882    -0.6256174     0.9678497
C           2.3025555    -1.1492746    -0.6409739
O           2.4669209    -1.8385256    -1.6393756
C          -0.0408011    -1.8611154    -0.3035721
H          -0.2487200    -2.6735129     0.4037923
H           0.1545963    -2.2933511    -1.2858512
H          -0.9198063    -1.2088959    -0.3616149
C           4.7414786     1.3836872     0.5608962
H           5.1300404     2.3276548     0.9165516
C           3.3712379     1.0263020     0.3612415
H           2.5031780     1.6526311     0.5157881
C           3.3683369    -0.2647912    -0.0959976
O           4.6519793    -0.7148292    -0.2165239
C           5.4674134     0.2890860     0.1963613
H           6.5240598     0.0686517     0.1796906
16
256_C6H7NO2_0-2-12-10 (-30,) energy =    -438.0330525
N           1.1361273    -1.0518249     0.0275139
H           1.1159446    -0.5150482     0.8825433
C           2.3405468    -1.2006782    -0.6126439
O           2.5370017    -1.9975986    -1.5213744
C          -0.0246746    -1.8494583    -0.3227034
H          -0.2444042    -2.6043989     0.4430119
H           0.2004282    -2.3590861    -1.2603845
H          -0.9073074    -1.2139499    -0.4564710
C           4.7460517     1.3613659     0.6003296
H           5.1210827     2.2929105     1.0004613
C           3.3809952     0.9741560     0.4309571
H           2.5043776     1.5659224     0.6570553
C           3.3967852    -0.2831456    -0.1146738
O           4.6871244    -0.6861259    -0.3048566
C           5.4881620     0.3144845     0.1385739
H           6.5493522     0.1312532     0.0630786
16
256_C6H7NO2_0-2-12-10 (-15,) energy =    -438.0333777
N           1.1146097    -0.9705354    -0.0448480
H           1.0399306    -0.3492242     0.7476463
C           2.3621666    -1.2107133    -0.5653885
O           2.6035893    -2.1164037    -1.3537421
C          -0.0115853    -1.8353951    -0.3471680
H          -0.1746486    -2.5908514     0.4332603
H           0.2071663    -2.3498485    -1.2836121
H          -0.9239887    -1.2411590    -0.4614527
C           4.7336306     1.3963597     0.6258306
H           5.0992495     2.3178286     1.0567758
C           3.3747781     0.9787471     0.4918510
H           2.4961065     1.5378824     0.7839838
C           3.4002354    -0.2489464    -0.1193863
O           4.6933135    -0.6083372    -0.3699822
C           5.4839358     0.3926586     0.0863446
H           6.5456426     0.2453424    -0.0422306
16
256_C6H7NO2_0-2-12-10 (0,) energy =    -438.0331826
N           1.1383150    -0.9489192    -0.0317328
H           0.9947645    -0.1391409     0.5526375
C           2.3989601    -1.2254789    -0.4946070
O           2.6651047    -2.1968075    -1.1923901
C           0.0037163    -1.8036409    -0.3250041
H          -0.4203753    -2.2335004     0.5908490
H           0.3633729    -2.6115276    -0.9633852
H          -0.7829909    -1.2517197    -0.8534289
C           4.7920393     1.3769038     0.6731146
H           5.1760263     2.2598540     1.1644575
C           3.4450340     0.9049647     0.6632845
H           2.6017525     1.3719520     1.1545375
C           3.4353617    -0.2447404    -0.0857689
O           4.6983842    -0.5045397    -0.5350028
C           5.5027196     0.4801788    -0.0701899
H           6.5427185     0.4059136    -0.3500961
16
256_C6H7NO2_0-2-12-10 (15,) energy =    -438.0333777
N           1.1124029    -0.9653944    -0.0414505
H           0.9313810    -0.0204016     0.2649356
C           2.3839720    -1.2819128    -0.4513061
O           2.6626674    -2.3059467    -1.0626492
C          -0.0221058    -1.8084043    -0.3730011
H          -0.7217150    -1.8479156     0.4682116
H           0.3574751    -2.8101069    -0.5778250
H          -0.5567126    -1.4516776    -1.2636842
C           4.7650692     1.3075236     0.7588313
H           5.1623681     2.1385704     1.3245224
C           3.4526703     0.7506341     0.8383879
H           2.6570663     1.0654256     1.5001735
C           3.4128860    -0.2887258    -0.0558184
O           4.6229380    -0.4037036    -0.6775734
C           5.4255318     0.5660377    -0.1768051
H           6.4256474     0.6005557    -0.5818194
16
256_C6H7NO2_0-2-12-10 (30,) energy =    -438.0330523
N           1.0945587    -0.9297206    -0.1451042
H           0.9290037     0.0474680     0.0480578
C           2.3795769    -1.3244010    -0.4200158
O           2.6737117    -2.4205532    -0.8797971
C          -0.0446850    -1.7948304    -0.3901719
H          -0.7018761    -1.8301972     0.4859921
H           0.3422183    -2.7941238    -0.5935335
H          -0.6283938    -1.4612643    -1.2576659
C           4.7773331     1.2728359     0.7319104
H           5.1947768     2.0824051     1.3140331
C           3.4756185     0.6957665     0.8524443
H           2.7081049     0.9656988     1.5650622
C           3.4012376    -0.2991960    -0.0873873
O           4.5821129    -0.3789140    -0.7676258
C           5.3983131     0.5811462    -0.2660168
H           6.3750485     0.6480270    -0.7208951
16
256_C6H7NO2_0-2-12-10 (45,) energy =    -438.0318629
N           1.0697418    -0.9041616    -0.2167253
H           0.9107089     0.0847269    -0.0886550
C           2.3626281    -1.3363148    -0.3529439
O           2.6749419    -2.4750697    -0.6763492
C          -0.0678905    -1.7858131    -0.4017570
H          -0.7398410    -1.7471621     0.4633614
H           0.3201563    -2.7991331    -0.5135331
H          -0.6358795    -1.5245473    -1.3032489
C           4.7889873     1.2458098     0.7666109
H           5.2346014     2.0235209     1.3708742
C           3.4972566     0.6530909     0.9254408
H           2.7656733     0.8751355     1.6904181
C           3.3726384    -0.2807043    -0.0687942
O           4.5173140    -0.3189957    -0.8124747
C           5.3567463     0.6178805    -0.3017567
H           6.3045131     0.7209284    -0.8082082
16
256_C6H7NO2_0-2-12-10 (60,) energy =    -438.0298486
N           1.0656438    -0.9031933    -0.2928191
H           0.9059407     0.0918516    -0.2280406
C           2.3597099    -1.3466650    -0.2794720
O           2.6898442    -2.5110156    -0.4619875
C          -0.0666794    -1.7972718    -0.4505213
H          -0.7757255    -1.6864665     0.3781446
H           0.3223547    -2.8163403    -0.4599554
H          -0.5932564    -1.6109913    -1.3944102
C           4.8269063     1.2215641     0.7835564
H           5.3097149     1.9686426     1.3978361
C           3.5508987     0.6101134     0.9980864
H           2.8720378     0.7834199     1.8219547
C           3.3580395    -0.2622414    -0.0386292
O           4.4503271    -0.2527738    -0.8597073
C           5.3206334     0.6614757    -0.3558933
H           6.2275172     0.8039799    -0.9238302
16
256_C6H7NO2_0-2-12-10 (75,) energy =    -438.0274562
N           1.0628284    -0.9028516    -0.3427593
H           0.9100790     0.0953191    -0.3616052
C           2.3419381    -1.3477970    -0.1641564
O           2.6704584    -2.5261837    -0.1880838
C          -0.0648562    -1.8005552    -0.5171614
H          -0.8258349    -1.6353789     0.2545375
H           0.3155764    -2.8196790    -0.4364790
H          -0.5259207    -1.6697661    -1.5033229
C           4.8695361     1.2101194     0.7924574
H           5.3998240     1.9322997     1.3973166
C           3.6243301     0.5695830     1.0947383
H           3.0226962     0.6934274     1.9847631
C           3.3416489    -0.2476675     0.0365173
O           4.3508746    -0.1805772    -0.8841839
C           5.2586543     0.7188896    -0.4159904
H           6.1056773     0.9035240    -1.0591359
16
256_C6H7NO2_0-2-12-10 (90,) energy =    -438.0256988
N           1.1085373    -0.9043504    -0.3855230
H           1.0050549     0.0921038    -0.5139983
C           2.3322920    -1.3723146    -0.0036157
O           2.5913806    -2.5553181     0.1710901
C          -0.0294291    -1.7749809    -0.6227988
H          -0.8613395    -1.5307974     0.0482090
H           0.2982041    -2.7974647    -0.4307958
H          -0.3757850    -1.6977682    -1.6600337
C           4.9084397     1.1953303     0.8282975
H           5.4817636     1.9017367     1.4122374
C           3.7432043     0.4689023     1.2428780
H           3.2574870     0.5029921     2.2081763
C           3.3656862    -0.2924644     0.1763228
O           4.2275185    -0.0975864    -0.8684409
C           5.1545980     0.8126772    -0.4536611
H           5.9036947     1.0794899    -1.1834543
16
256_C6H7NO2_0-2-12-10 (105,) energy =    -438.0270897
N           1.1982205    -0.8966980    -0.4443167
H           1.2932463     0.0058177    -0.8889076
C           2.3067634    -1.4309588     0.1527384
O           2.3416299    -2.5491127     0.6511177
C           0.0100408    -1.6873438    -0.7163372
H          -0.8900839    -1.1164149    -0.4663860
H           0.0587204    -2.5787756    -0.0897736
H          -0.0453766    -1.9965657    -1.7682703
C           4.8885329     1.1756137     0.7688459
H           5.5005117     1.8820257     1.3121495
C           3.9625631     0.2295353     1.3171431
H           3.7222424     0.0705274     2.3588610
C           3.4490303    -0.4663980     0.2625139
O           3.9585531     0.0280543    -0.9140313
C           4.8474707     1.0078989    -0.5809989
H           5.3719198     1.4635843    -1.4071400
16
256_C6H7NO2_0-2-12-10 (120,) energy =    -438.0310787
N           1.2340093    -0.9148720    -0.5226652
H           1.4098127    -0.1100163    -1.1080761
C           2.2763036    -1.3935031     0.2244459
O           2.2193892    -2.4114212     0.9055293
C           0.0268790    -1.6910160    -0.7447144
H          -0.8575143    -1.0533307    -0.6441604
H          -0.0039311    -2.4736227     0.0144240
H           0.0154808    -2.1598253    -1.7375799
C           4.9262069     1.1345976     0.7854862
H           5.5865547     1.7980286     1.3262694
C           4.0671900     0.1299993     1.3333566
H           3.9302526    -0.1276288     2.3738684
C           3.4505836    -0.4774349     0.2772923
O           3.8344148     0.1346010    -0.8946732
C           4.7468639     1.0915481    -0.5635560
H           5.1847213     1.6275962    -1.3920554
16
256_C6H7NO2_0-2-12-10 (135,) energy =    -438.0348985
N           1.2302648    -0.9195957    -0.5966558
H           1.4421279    -0.1756771    -1.2468470
C           2.2181235    -1.3104345     0.2653444
O           2.1137246    -2.2452837     1.0534488
C           0.0230577    -1.7016440    -0.7897582
H          -0.8591363    -1.0527562    -0.7750290
H          -0.0402081    -2.4145970     0.0333827
H           0.0400067    -2.2548928    -1.7380073
C           4.9771334     1.0982285     0.7881496
H           5.6999257     1.6995003     1.3216641
C           4.1211056     0.0883074     1.3289271
H           4.0454707    -0.2395655     2.3555817
C           3.4026750    -0.4160203     0.2829682
O           3.7308894     0.2571470    -0.8719532
C           4.7005618     1.1567513    -0.5444515
H           5.0965558     1.7377236    -1.3637053
16
256_C6H7NO2_0-2-12-10 (150,) energy =    -438.0377904
N           1.2240943    -0.9421266    -0.6795604
H           1.4627579    -0.2429177    -1.3686294
C           2.1519486    -1.2347152     0.2810882
O           2.0068476    -2.0985775     1.1417216
C           0.0224682    -1.7344648    -0.8594444
H          -0.8633801    -1.0907850    -0.8978951
H          -0.0577867    -2.4050953    -0.0028415
H           0.0639896    -2.3337749    -1.7781750
C           5.0229231     1.0451841     0.7724655
H           5.8084688     1.5765659     1.2912602
C           4.1535947     0.0435370     1.3059408
H           4.1262550    -0.3488543     2.3119401
C           3.3397791    -0.3509977     0.2829644
O           3.6331055     0.3721739    -0.8501731
C           4.6645546     1.2034579    -0.5327959
H           5.0322548     1.8222426    -1.3374072
16
256_C6H7NO2_0-2-12-10 (165,) energy =    -438.0395458
N           1.4651408    -1.6373372     0.0786913
H           2.0980324    -2.0073213     0.7735865
C           1.7643470    -0.4286282    -0.4842771
O           1.0631265     0.1398746    -1.3176322
C           0.2292718    -2.3399557    -0.2061643
H           0.4299766    -3.3593711    -0.5555274
H          -0.2866344    -1.7868710    -0.9922623
H          -0.4184853    -2.3912142     0.6781478
C           4.9959228     1.2468934     0.1736875
H           5.8142567     1.9412972     0.0444179
C           3.7891060     1.1755472    -0.5886763
H           3.4887702     1.7909453    -1.4238591
C           3.0526038     0.1566715    -0.0560006
O           3.7408693    -0.4214372     0.9852464
C           4.9131049     0.2601148     1.1105328
H           5.5649597    -0.0702248     1.9051832
16
256_C6H7NO2_0-2-12-10 (180,) energy =    -438.0401228
N           1.4460979    -1.5851772     0.0909829
H           2.0460904    -1.9305053     0.8264705
C           1.8361000    -0.4627376    -0.5832752
O           1.1949844     0.0562531    -1.4940029
C           0.2107503    -2.2816645    -0.2098460
H           0.4030208    -3.2944505    -0.5852939
H          -0.3070276    -1.7099126    -0.9812382
H          -0.4291596    -2.3507023     0.6778114
C           4.9890891     1.3018170     0.2100909
H           5.7702149     2.0460506     0.1428468
C           3.8026724     1.2150673    -0.5819984
H           3.4799664     1.8701878    -1.3776207
C           3.1213847     0.1170878    -0.1410849
O           3.8164952    -0.4843149     0.8818873
C           4.9459991     0.2507792     1.0772503
H           5.6044360    -0.0996885     1.8577138
