21
105_C9H9N3_9-0-16-17 (-165,) energy =    -512.6235677
C           3.6283411    -1.1506780    -1.7562270
H           4.0672254    -0.7926042    -2.7020622
H           3.8972991    -2.2098002    -1.6792878
C           5.7303598     0.7328948     1.4332202
H           6.3105968     1.1526909     2.2496832
C           4.8096232     1.5030341     0.7223159
H           4.6495972     2.5483843     0.9733601
C           4.0918299     0.9137216    -0.3147146
H           3.3473855     1.4691266    -0.8717895
C           4.3184620    -0.4379901    -0.6071286
N           5.2008968    -1.1850786     0.0748648
C           5.8841523    -0.6030383     1.0688429
H           6.5881907    -1.2432861     1.5986631
C           0.0879618    -0.3364812    -1.7029292
H          -0.7427917     0.2749308    -1.3776845
N           1.3736964    -0.0836052    -1.2721231
C           2.1319371    -1.0017772    -1.8372079
N           1.3797552    -1.8299467    -2.6307099
H           1.7198395    -2.6253688    -3.1518579
C           0.0639619    -1.4153720    -2.5461010
H          -0.7322611    -1.9195550    -3.0726899
21
105_C9H9N3_9-0-16-17 (-150,) energy =    -512.6244616
C           3.6231006    -1.1466661    -1.8003359
H           4.0860287    -0.7809375    -2.7315100
H           3.8814210    -2.2088230    -1.7378501
C           5.7473041     0.6732307     1.4147876
H           6.3412733     1.0778062     2.2290840
C           4.7039864     1.3994987     0.8413942
H           4.4589056     2.3955705     1.2011621
C           3.9736425     0.8330870    -0.2009960
H           3.1394694     1.3495277    -0.6607675
C           4.3131304    -0.4554481    -0.6342536
N           5.3144011    -1.1624527    -0.0843953
C           6.0074108    -0.6011108     0.9137870
H           6.8092797    -1.2070513     1.3337282
C           0.1112007    -0.2460100    -2.0146177
H          -0.7010538     0.4556264    -1.8815623
N           1.3989033     0.0715629    -1.6391512
C           2.1316788    -0.9890924    -1.9200153
N           1.3595071    -1.9718977    -2.4838837
H           1.6790106    -2.8863509    -2.7694759
C           0.0595631    -1.5085904    -2.5436409
H          -0.7477618    -2.1086747    -2.9352743
21
105_C9H9N3_9-0-16-17 (-135,) energy =    -512.6253886
C           2.2551376     0.5447948    -0.7498242
H           1.5760344     0.6808853     0.1061612
H           2.2412192     1.4904027    -1.3005041
C           6.2084386     0.2316453     0.8125647
H           7.2209994     0.2272708     1.2052817
C           5.4196096    -0.9188162     0.8164102
H           5.8046274    -1.8538344     1.2153625
C           4.1274079    -0.8570338     0.3003182
H           3.4823349    -1.7278002     0.2644211
C           3.6671769     0.3641488    -0.2096132
N           4.4212123     1.4752362    -0.2199838
C           5.6599651     1.3981474     0.2826215
H           6.2411850     2.3189511     0.2548036
C           1.0374033    -2.4512634    -2.3932073
H           0.8951509    -3.5228433    -2.4302320
N           1.7084920    -1.8549017    -1.3481202
C           1.7149206    -0.5615208    -1.6125482
N           1.0529343    -0.3055165    -2.7845546
H           0.9307386     0.6022272    -3.2098569
C           0.6176256    -1.5113616    -3.2981083
H           0.0738130    -1.5782675    -4.2281308
21
105_C9H9N3_9-0-16-17 (-120,) energy =    -512.6261485
C           2.1756785     0.5305906    -0.6248115
H           1.5284716     0.5771596     0.2626417
H           2.0987191     1.5036252    -1.1187927
C           6.2145631     0.2420071     0.7085850
H           7.2483801     0.2393171     1.0412573
C           5.4255023    -0.9072816     0.7714088
H           5.8319317    -1.8385938     1.1575018
C           4.1062637    -0.8465077     0.3307365
H           3.4570950    -1.7156552     0.3438967
C           3.6188242     0.3713033    -0.1622027
N           4.3715606     1.4801874    -0.2296819
C           5.6384689     1.4042101     0.1996348
H           6.2191076     2.3229546     0.1280947
C           0.9933974    -2.4310348    -2.3450347
H           0.7838414    -3.4919068    -2.3697889
N           1.5315072    -1.8346310    -1.2257883
C           1.6606877    -0.5553798    -1.5260208
N           1.2094985    -0.3074402    -2.7950077
H           1.2152199     0.5883427    -3.2612513
C           0.7819381    -1.5050045    -3.3337477
H           0.3806087    -1.5759519    -4.3332849
21
105_C9H9N3_9-0-16-17 (-105,) energy =    -512.6267341
C           2.0811185     0.5008478    -0.5079490
H           1.4629465     0.4480587     0.3974597
H           1.9493816     1.5013708    -0.9303324
C           6.1851292     0.2258915     0.6124949
H           7.2354163     0.2225914     0.8886730
C           5.3947795    -0.9178872     0.7373374
H           5.8171282    -1.8450679     1.1160578
C           4.0545459    -0.8545981     0.3674486
H           3.4019453    -1.7196807     0.4307094
C           3.5469158     0.3590170    -0.1156700
N           4.3001039     1.4615367    -0.2439709
C           5.5886766     1.3832486     0.1163160
H           6.1701105     2.2965709    -0.0021266
C           0.9247775    -2.3920257    -2.3497689
H           0.6402170    -3.4347413    -2.3923507
N           1.3238066    -1.8070025    -1.1678197
C           1.5901519    -0.5479075    -1.4629595
N           1.3676516    -0.3013546    -2.7913124
H           1.5132173     0.5797539    -3.2629362
C           0.9421502    -1.4793115    -3.3730724
H           0.6930701    -1.5462881    -4.4212794
21
105_C9H9N3_9-0-16-17 (-90,) energy =    -512.6271193
C           2.0180353     0.4588801    -0.3659661
H           1.4385984     0.2995471     0.5503934
H           1.8262276     1.4801013    -0.7090291
C           6.1877882     0.2370334     0.4918080
H           7.2545973     0.2421575     0.6946340
C           5.4052820    -0.8930850     0.7377069
H           5.8506421    -1.7996050     1.1392709
C           4.0433567    -0.8408366     0.4586535
H           3.3955232    -1.6978099     0.6166961
C           3.5051783     0.3471916    -0.0553505
N           4.2507784     1.4341236    -0.3015756
C           5.5620539     1.3675625    -0.0286027
H           6.1364862     2.2683441    -0.2402034
C           0.8467184    -2.3402047    -2.3336992
H           0.4735006    -3.3526423    -2.4094358
N           1.1263310    -1.7699528    -1.1103191
C           1.5443856    -0.5459681    -1.3743874
N           1.5404405    -0.3075669    -2.7229020
H           1.8381457     0.5454636    -3.1744562
C           1.0952932    -1.4543504    -3.3505815
H           0.9904218    -1.5193028    -4.4230740
21
105_C9H9N3_9-0-16-17 (-75,) energy =    -512.6289745
C           1.9343509     0.0340445    -0.1606472
H           1.4566754    -0.4794805     0.6775686
H           1.5453619     1.0594105    -0.1952724
C           6.1676015     0.2741781     0.2649573
H           7.2474022     0.3763788     0.3131930
C           5.4650075    -0.4821505     1.2010941
H           5.9863521    -0.9928534     2.0063852
C           4.0785750    -0.5753429     1.0875384
H           3.4977914    -1.1597536     1.7947799
C           3.4388395     0.0932488     0.0397672
N           4.1130608     0.8231767    -0.8676438
C           5.4426911     0.9029819    -0.7481614
H           5.9540885     1.5022735    -1.5000514
C           0.8114670    -2.1353092    -2.8258465
H           0.3629738    -3.0560276    -3.1742455
N           1.0028062    -1.8973421    -1.4806936
C           1.5551413    -0.7016562    -1.4130398
N           1.6998256    -0.1474900    -2.6555465
H           2.2286514     0.6944793    -2.8401672
C           1.2469820    -1.0717362    -3.5754275
H           1.2650765    -0.8824301    -4.6382231
21
105_C9H9N3_9-0-16-17 (-60,) energy =    -512.6307176
C           1.9296021    -0.1040990    -0.1302301
H           1.4946674    -0.6950740     0.6794906
H           1.4869370     0.9006163    -0.0791624
C           6.1498675     0.3579042     0.2775745
H           7.2227249     0.5171289     0.3242709
C           5.4795548    -0.3838389     1.2484138
H           6.0207522    -0.8258321     2.0807428
C           4.1005208    -0.5526916     1.1342819
H           3.5460995    -1.1275184     1.8699517
C           3.4317533     0.0269017     0.0515119
N           4.0776217     0.7418454    -0.8889738
C           5.4012120     0.8948275    -0.7697484
H           5.8860811     1.4782199    -1.5508777
C           0.6737904    -2.0416487    -2.9104009
H           0.0994423    -2.8674998    -3.3083897
N           0.7934754    -1.8436523    -1.5504831
C           1.5442615    -0.7663756    -1.4217438
N           1.8925183    -0.2494848    -2.6383527
H           2.5715234     0.4936934    -2.7488575
C           1.3554898    -1.0739220    -3.6052847
H           1.5000532    -0.8944270    -4.6601201
21
105_C9H9N3_9-0-16-17 (-45,) energy =    -512.6313017
C           1.9446368    -0.2422867    -0.0924210
H           1.5650866    -0.9073385     0.6871555
H           1.4599512     0.7343277     0.0627242
C           6.1410634     0.4357171     0.2937414
H           7.2040506     0.6505618     0.3418773
C           5.4973861    -0.2913718     1.2935596
H           6.0500821    -0.6657617     2.1510661
C           4.1305177    -0.5348637     1.1749996
H           3.5980252    -1.1003862     1.9337273
C           3.4421526    -0.0424834     0.0602604
N           4.0649905     0.6563689    -0.9073301
C           5.3786792     0.8809912    -0.7850990
H           5.8418382     1.4474433    -1.5912504
C           0.4911850    -1.9134714    -2.9450041
H          -0.1986330    -2.6292430    -3.3719233
N           0.5911429    -1.7444298    -1.5803707
C           1.5104233    -0.8112542    -1.4141353
N           1.9983229    -0.3692171    -2.6100695
H           2.7641835     0.2914621    -2.6784193
C           1.3585337    -1.0778521    -3.6045279
H           1.5758109    -0.9254896    -4.6511367
21
105_C9H9N3_9-0-16-17 (-30,) energy =    -512.6307090
C           1.9911181    -0.3888460    -0.0922316
H           1.6793573    -1.1414133     0.6370717
H           1.4593476     0.5359728     0.1867972
C           6.1427683     0.5278341     0.3153453
H           7.1915166     0.8014522     0.3750222
C           5.5068978    -0.1589494     1.3489446
H           6.0519639    -0.4414555     2.2456034
C           4.1597628    -0.4832320     1.2121584
H           3.6353562    -1.0207469     1.9965911
C           3.4769804    -0.1092182     0.0469858
N           4.0943450     0.5485509    -0.9513180
C           5.3916120     0.8508692    -0.8123336
H           5.8483351     1.3791458    -1.6473900
C           0.3499426    -1.7535270    -3.0022609
H          -0.4358603    -2.3472654    -3.4501604
N           0.4514152    -1.6165657    -1.6350218
C           1.5035641    -0.8407829    -1.4417728
N           2.0824027    -0.4796182    -2.6225373
H           2.9121979     0.1023332    -2.6655120
C           1.3514105    -1.0600231    -3.6364415
H           1.6100516    -0.9336842    -4.6770531
21
105_C9H9N3_9-0-16-17 (-15,) energy =    -512.6295845
C           2.0459037    -0.5741582    -0.1039619
H           1.8353669    -1.4345348     0.5399532
H           1.4538876     0.2516113     0.3236113
C           6.1286307     0.6137978     0.3316171
H           7.1591660     0.9474641     0.4014173
C           5.4830550     0.0035619     1.4078870
H           6.0021032    -0.1557284     2.3492118
C           4.1625213    -0.4049586     1.2548674
H           3.6329535    -0.8864811     2.0718961
C           3.5092505    -0.1902618     0.0314810
N           4.1365854     0.3928363    -1.0041805
C           5.4114237     0.7777809    -0.8493246
H           5.8754421     1.2402801    -1.7184976
C           0.2250776    -1.5847972    -3.0468602
H          -0.6374670    -2.0517081    -3.5037322
N           0.3506836    -1.5021320    -1.6782269
C           1.5014557    -0.8843268    -1.4725627
N           2.1208131    -0.5779704    -2.6473970
H           3.0045468    -0.0796681    -2.6770528
C           1.3096443    -1.0178428    -3.6704856
H           1.5762090    -0.8935214    -4.7093201
21
105_C9H9N3_9-0-16-17 (0,) energy =    -512.6289263
C           2.1457331    -0.8642503    -0.1184639
H           2.1247553    -1.8631951     0.3393935
H           1.4783717    -0.2602655     0.5121532
C           6.1061299     0.6810701     0.3541397
H           7.1131385     1.0785430     0.4322868
C           5.3919601     0.2706798     1.4823075
H           5.8315922     0.3403504     2.4736239
C           4.1066756    -0.2295349     1.3169156
H           3.5240278    -0.5573732     2.1735069
C           3.5547142    -0.3121183     0.0274465
N           4.2451532     0.0836044    -1.0532219
C           5.4863211     0.5657942    -0.8844647
H           6.0018559     0.8723383    -1.7925312
C           0.1053483    -1.3715762    -3.0437853
H          -0.8226405    -1.6970790    -3.4950841
N           0.2997961    -1.4399291    -1.6831135
C           1.5199960    -0.9695959    -1.4830254
N           2.1122451    -0.6048246    -2.6548158
H           3.0525557    -0.2223768    -2.6829777
C           1.2153423    -0.8573330    -3.6690018
H           1.4457576    -0.6533107    -4.7038598
21
105_C9H9N3_9-0-16-17 (15,) energy =    -512.6295845
C           2.2838843    -1.1593942    -0.1666279
H           2.4606571    -2.2239882     0.0583117
H           1.5856028    -0.8204580     0.6058497
C           6.0724586     0.7519296     0.3464527
H           7.0491577     1.2180032     0.4303863
C           5.2662677     0.5366478     1.4650342
H           5.5990861     0.8353873     2.4554190
C           4.0231763    -0.0623227     1.2916161
H           3.3701498    -0.2402481     2.1411706
C           3.6112714    -0.4412067     0.0046352
N           4.3885843    -0.2269476    -1.0705465
C           5.5826484     0.3566217    -0.8943971
H           6.1715126     0.5120769    -1.7964779
C           0.0584001    -1.1745524    -3.0029181
H          -0.9182522    -1.3607513    -3.4297678
N           0.3071796    -1.3950551    -1.6667801
C           1.5767446    -1.0694320    -1.4923448
N           2.1467976    -0.6416290    -2.6541148
H           3.1243656    -0.3740705    -2.7083806
C           1.1838619    -0.7080800    -3.6372389
H           1.3845396    -0.4215191    -4.6586593
21
105_C9H9N3_9-0-16-17 (30,) energy =    -512.6307090
C           2.3696202    -1.3221533    -0.1935847
H           2.6406809    -2.3887209    -0.1255601
H           1.6809325    -1.1381595     0.6355754
C           6.0298095     0.8141586     0.3388487
H           6.9800664     1.3320302     0.4231663
C           5.1761752     0.6711947     1.4321176
H           5.4432030     1.0812020     2.4024310
C           3.9699151    -0.0024627     1.2599845
H           3.2808179    -0.1279452     2.0898340
C           3.6458714    -0.5225085    -0.0003196
N           4.4690882    -0.3785164    -1.0547999
C           5.6245072     0.2758665    -0.8802458
H           6.2547641     0.3706719    -1.7627399
C           0.0293709    -0.9593021    -2.9165837
H          -0.9800551    -0.9990570    -3.3040060
N           0.2986281    -1.2358121    -1.5939337
C           1.6066113    -1.0941726    -1.4699154
N           2.1852685    -0.7356118    -2.6515639
H           3.1817251    -0.5673065    -2.7400286
C           1.1825595    -0.6440490    -3.5925042
H           1.3788670    -0.3654389    -4.6169949
21
105_C9H9N3_9-0-16-17 (45,) energy =    -512.6313018
C           2.4367887    -1.4560744    -0.2240251
H           2.7690156    -2.5042290    -0.2853516
H           1.7636850    -1.3909061     0.6343361
C           5.9643727     0.8810450     0.3350001
H           6.8838326     1.4518118     0.4200734
C           5.0743640     0.7676811     1.4016108
H           5.2806592     1.2545252     2.3510230
C           3.9103612     0.0210140     1.2306464
H           3.1937438    -0.0855414     2.0394367
C           3.6678393    -0.5951600    -0.0024149
N           4.5257687    -0.4821711    -1.0337904
C           5.6386507     0.2405433    -0.8596025
H           6.3023234     0.3074899    -1.7200202
C           0.0252844    -0.7610536    -2.8211298
H          -0.9968297    -0.6540064    -3.1591600
N           0.3154396    -1.0594085    -1.5067513
C           1.6334200    -1.1141111    -1.4474690
N           2.2006453    -0.8723338    -2.6654537
H           3.2030005    -0.7979502    -2.7976089
C           1.1771932    -0.6329606    -3.5574665
H           1.3609382    -0.4005940    -4.5957587
21
105_C9H9N3_9-0-16-17 (60,) energy =    -512.6307176
C           2.5215319    -1.5638478    -0.2984274
H           2.8959820    -2.5836802    -0.4649907
H           1.8598778    -1.5958403     0.5706271
C           5.9185177     0.9364389     0.3335719
H           6.8066596     1.5531368     0.4307513
C           4.9948480     0.8191276     1.3704449
H           5.1426586     1.3489952     2.3076832
C           3.8739230     0.0111879     1.1859515
H           3.1316201    -0.1006998     1.9704816
C           3.7103174    -0.6571035    -0.0314985
N           4.6001059    -0.5433224    -1.0355580
C           5.6704236     0.2367412    -0.8473291
H           6.3650269     0.3031289    -1.6832278
C           0.0800421    -0.5546040    -2.7644141
H          -0.9316207    -0.2956782    -3.0468974
N           0.4015046    -0.8610751    -1.4584127
C           1.6939229    -1.1260942    -1.4725405
N           2.2124386    -1.0269335    -2.7334545
H           3.2059342    -1.0625181    -2.9265182
C           1.1873475    -0.6389842    -3.5711523
H           1.3385064    -0.4722872    -4.6271624
21
105_C9H9N3_9-0-16-17 (75,) energy =    -512.6289745
C           2.6182425    -1.6520765    -0.3535327
H           3.0395735    -2.6337920    -0.6037573
H           1.9809550    -1.7731669     0.5260626
C           5.8732033     1.0100011     0.3376549
H           6.7272429     1.6713061     0.4473511
C           4.9136626     0.8869928     1.3407324
H           4.9978761     1.4563888     2.2625826
C           3.8394901     0.0206364     1.1423325
H           3.0694998    -0.0974770     1.8987715
C           3.7606240    -0.6965903    -0.0549378
N           4.6836074    -0.5797971    -1.0271689
C           5.7079527     0.2558497    -0.8247807
H           6.4347850     0.3240398    -1.6329149
C           0.1219917    -0.4098871    -2.6548096
H          -0.8603352    -0.0069635    -2.8620225
N           0.5215123    -0.6924365    -1.3651521
C           1.7475018    -1.1658134    -1.4755299
N           2.1427765    -1.2280287    -2.7838684
H           3.0903218    -1.4225619    -3.0787767
C           1.1133964    -0.7207619    -3.5510285
H           1.1794289    -0.6464476    -4.6261173
21
105_C9H9N3_9-0-16-17 (90,) energy =    -512.6271193
C           2.9553234    -1.8556304    -0.6256309
H           3.4937287    -2.6423747    -1.1627797
H           2.4937191    -2.3099197     0.2583326
C           5.8784856     1.0081093     0.5684992
H           6.6676863     1.7003326     0.8464115
C           4.5540701     1.2197702     0.9571819
H           4.2819896     2.0893845     1.5497367
C           3.5854935     0.2984204     0.5719368
H           2.5397647     0.4267205     0.8347281
C           3.9758210    -0.8122408    -0.1891974
N           5.2438580    -1.0188384    -0.5730820
C           6.1655552    -0.1211154    -0.1949854
H           7.1844592    -0.3208199    -0.5237835
C           0.0417353    -0.3317320    -2.1314733
H          -0.9294123     0.1374217    -2.0488626
N           0.7247411    -0.7649579    -1.0152977
C           1.8489882    -1.2896699    -1.4662791
N           1.9119364    -1.2125310    -2.8320866
H           2.6806024    -1.5247514    -3.4081610
C           0.7563305    -0.5970692    -3.2714411
H           0.5579117    -0.4266579    -4.3188414
21
105_C9H9N3_9-0-16-17 (105,) energy =    -512.6267341
C           3.0194509    -1.8157375    -0.7677456
H           3.5812780    -2.5320951    -1.3743686
H           2.6023098    -2.3695415     0.0831265
C           5.8776904     0.9919858     0.6886599
H           6.6545068     1.6653087     1.0387765
C           4.5294104     1.2300673     0.9605448
H           4.2248425     2.1025956     1.5327368
C           3.5774935     0.3325239     0.4858571
H           2.5158490     0.4806255     0.6568332
C           4.0097426    -0.7808062    -0.2473564
N           5.3025579    -1.0147908    -0.5178928
C           6.2061229    -0.1404364    -0.0537541
H           7.2454841    -0.3612405    -0.2929712
C           0.0613761    -0.2387291    -2.1318708
H          -0.8640999     0.3065495    -2.0045580
N           0.8378238    -0.5926895    -1.0500597
C           1.8743021    -1.2406268    -1.5493158
N           1.7863682    -1.3230986    -2.9132387
H           2.4629368    -1.7558779    -3.5255522
C           0.6268765    -0.6806304    -3.3003895
H           0.3245992    -0.6123498    -4.3344259
21
105_C9H9N3_9-0-16-17 (120,) energy =    -512.6261485
C           3.0996883    -1.7502631    -0.8805285
H           3.6769749    -2.3966133    -1.5481437
H           2.7284464    -2.3904623    -0.0675469
C           5.9170320     0.9832762     0.7820652
H           6.6864943     1.6345024     1.1861561
C           4.5613942     1.2373583     0.9944824
H           4.2430285     2.1004175     1.5735911
C           3.6177776     0.3689600     0.4524980
H           2.5521846     0.5314036     0.5755254
C           4.0667659    -0.7315424    -0.2897689
N           5.3680318    -0.9813389    -0.5021054
C           6.2625420    -0.1361175     0.0276078
H           7.3084539    -0.3697777    -0.1668653
C           0.0846221    -0.1648597    -2.1151007
H          -0.7977920     0.4415478    -1.9615032
N           0.9647795    -0.4197523    -1.0863508
C           1.9155892    -1.1753012    -1.6044453
N           1.6677058    -1.4268610    -2.9275626
H           2.2536764    -1.9671398    -3.5477078
C           0.4964071    -0.7799029    -3.2692028
H           0.0849736    -0.8224158    -4.2662423
21
105_C9H9N3_9-0-16-17 (135,) energy =    -512.6253886
C           3.1577605    -1.6827193    -0.9997115
H           3.7576442    -2.2560819    -1.7131614
H           2.8227060    -2.4019887    -0.2362988
C           5.9130402     0.9672658     0.8854255
H           6.6703365     1.5940719     1.3470982
C           4.5524721     1.2331745     1.0402705
H           4.2170246     2.0817689     1.6310525
C           3.6235818     0.3964933     0.4262066
H           2.5562646     0.5719017     0.5017548
C           4.0932960    -0.6845725    -0.3312914
N           5.4011781    -0.9455083    -0.4879472
C           6.2799471    -0.1323223     0.1116870
H           7.3308794    -0.3750655    -0.0402573
C           0.0989972    -0.1116062    -2.1553514
H          -0.7430516     0.5507898    -2.0067699
N           1.0698400    -0.2614939    -1.1893229
C           1.9442529    -1.1178696    -1.6841181
N           1.5566279    -1.5377245    -2.9294403
H           2.0613471    -2.1818094    -3.5212397
C           0.3758925    -0.8948498    -3.2454596
H          -0.1306718    -1.0508297    -4.1857852
21
105_C9H9N3_9-0-16-17 (150,) energy =    -512.6244610
C           3.2125698    -1.6249173    -1.0894444
H           3.8311504    -2.1431354    -1.8293411
H           2.8989871    -2.3965424    -0.3674458
C           5.9128916     0.9546166     0.9636842
H           6.6591261     1.5624971     1.4668633
C           4.5483517     1.1976591     1.1179900
H           4.1981424     2.0097017     1.7500960
C           3.6336431     0.3870223     0.4495576
H           2.5654248     0.5541916     0.5190457
C           4.1212518    -0.6459465    -0.3619382
N           5.4341031    -0.8837373    -0.5183558
C           6.2984169    -0.0968913     0.1340762
H           7.3531749    -0.3208171    -0.0203156
C           0.1583230    -0.0217665    -2.2256351
H          -0.6269819     0.7140249    -2.1176073
N           1.2067200    -0.0850446    -1.3328738
C           1.9814045    -1.0676883    -1.7510185
N           1.4535766    -1.6529612    -2.8729541
H           1.8674783    -2.4105118    -3.3970559
C           0.2868437    -0.9852328    -3.1909751
H          -0.3112341    -1.2490877    -4.0500094
21
105_C9H9N3_9-0-16-17 (165,) energy =    -512.6235678
C           3.2422190    -1.5883736    -1.1075909
H           3.8761415    -2.0896505    -1.8470967
H           2.9125166    -2.3729106    -0.4067121
C           5.8843487     0.9990683     1.0052951
H           6.6153660     1.6178358     1.5174130
C           4.5192393     1.1139167     1.2689399
H           4.1536916     1.8330198     1.9973984
C           3.6260434     0.2959992     0.5824842
H           2.5569482     0.3741849     0.7372769
C           4.1314247    -0.6153392    -0.3545311
N           5.4434241    -0.7288310    -0.6147718
C           6.2895599     0.0644832     0.0547615
H           7.3446853    -0.0568141    -0.1866671
C           0.3314869     0.1892056    -2.3591431
H          -0.3329529     1.0425868    -2.3625513
N           1.4360597     0.1470747    -1.5340766
C           2.0265810    -1.0055951    -1.7787944
N           1.3308412    -1.7153474    -2.7240697
H           1.5885813    -2.6160421    -3.1012524
C           0.2436042    -0.9535746    -3.1087177
H          -0.4560993    -1.2887015    -3.8594401
21
105_C9H9N3_9-0-16-17 (180,) energy =    -512.6231154
C           3.3065934    -1.5852748    -1.2075744
H           3.9557596    -2.0106963    -1.9819713
H           3.0187167    -2.4275374    -0.5575895
C           5.8547063     0.9729172     1.0501660
H           6.5631080     1.5863508     1.5991171
C           4.4837108     1.0420905     1.2995426
H           4.0903768     1.7188660     2.0535901
C           3.6217996     0.2340978     0.5640355
H           2.5493519     0.2800206     0.7107762
C           4.1614711    -0.6227081    -0.4044542
N           5.4787255    -0.6918347    -0.6507070
C           6.2954146     0.0920106     0.0649840
H           7.3561826     0.0084375    -0.1673609
C           0.4488264     0.2548239    -2.4889336
H          -0.1260920     1.1647189    -2.5952620
N           1.6184852     0.2301903    -1.7577123
C           2.0630098    -1.0082999    -1.8294810
N           1.2151886    -1.7860139    -2.5770851
H           1.3393551    -2.7643462    -2.7949047
C           0.1772801    -0.9822459    -3.0098513
H          -0.6239563    -1.3610209    -3.6264136
