18
251_C7H7ClN2O_13-0-1-8 (-165,) energy =    -915.8934959
C           1.4779196    -0.8924484    -1.0188103
N           2.6206962    -1.3042214    -0.3255085
H           2.4529507    -1.9460508     0.4421809
C           5.8376849     1.1379031     0.6461993
H           6.6549907     1.7762863     0.9658946
C           5.0554915     0.4553684     1.5751794
H           5.2583356     0.5314070     2.6413139
N           4.0204570    -0.3153016     1.2308157
C           3.7237386    -0.4657399    -0.0639967
C           4.5073235     0.1174917    -1.0770084
Cl          4.2750351    -0.2473730    -2.7677974
C           5.5600281     0.9514579    -0.7060613
H           6.1635639     1.4217461    -1.4753482
C           0.3010485    -1.8421216    -0.8604683
H          -0.4421958    -1.6067159    -1.6232471
H          -0.1583533    -1.7080560     0.1269370
H           0.6063914    -2.8897591    -0.9533305
O           1.4312653     0.1313002    -1.6711206
18
251_C7H7ClN2O_13-0-1-8 (-150,) energy =    -915.8919374
C           1.5442953    -0.9721922    -1.0976629
N           2.7237381    -1.4039013    -0.4715045
H           2.5610316    -2.0455592     0.2985964
C           5.7756939     1.1688851     0.6882456
H           6.5469387     1.8381777     1.0556421
C           4.9938092     0.4253559     1.5692586
H           5.1505461     0.4851822     2.6441005
N           4.0139191    -0.3882822     1.1655127
C           3.7772251    -0.5194860    -0.1428095
C           4.5656739     0.1294945    -1.1102328
Cl          4.4103893    -0.2019212    -2.8159926
C           5.5604204     1.0046080    -0.6783496
H           6.1684648     1.5246564    -1.4111905
C           0.3243397    -1.8035301    -0.7347079
H          -0.4492410    -1.6459861    -1.4877704
H          -0.0608416    -1.4656405     0.2353036
H           0.5506736    -2.8724970    -0.6579373
O           1.4926495     0.0112029    -1.8076180
18
251_C7H7ClN2O_13-0-1-8 (-135,) energy =    -915.8883996
C           1.5656373    -1.0762037    -1.1558431
N           2.7823193    -1.5062550    -0.5849305
H           2.6318741    -2.1429584     0.1929416
C           5.6761341     1.1808559     0.7232760
H           6.4037858     1.8771005     1.1276771
C           4.8974614     0.3899802     1.5647286
H           5.0128270     0.4399724     2.6452583
N           3.9698917    -0.4601415     1.1138906
C           3.7865169    -0.5810888    -0.2035551
C           4.5766080     0.1197057    -1.1327536
Cl          4.4900250    -0.1871244    -2.8476078
C           5.5160895     1.0301756    -0.6526010
H           6.1258097     1.5886773    -1.3551434
C           0.3405998    -1.7619000    -0.5731890
H          -0.5089660    -1.6100533    -1.2406777
H           0.1154980    -1.2997762     0.3957984
H           0.4911713    -2.8348704    -0.4089252
O           1.4967508    -0.1667919    -1.9549240
18
251_C7H7ClN2O_13-0-1-8 (-120,) energy =    -915.8834479
C           1.6028565    -1.1396462    -1.2683795
N           2.8484523    -1.5760742    -0.7389644
H           2.6933980    -2.2110502     0.0408895
C           5.5995275     1.1722054     0.7514479
H           6.2895867     1.8788532     1.2011400
C           4.8111257     0.3402623     1.5421293
H           4.8791494     0.3685163     2.6274468
N           3.9292365    -0.5265197     1.0336934
C           3.8045875    -0.6242007    -0.2924921
C           4.6065685     0.1257131    -1.1724337
Cl          4.5881011    -0.1314913    -2.8972552
C           5.4983184     1.0508226    -0.6331704
H           6.1179046     1.6445655    -1.2971323
C           0.3944592    -1.6454949    -0.4981269
H          -0.5118708    -1.4524680    -1.0739025
H           0.3434290    -1.0963341     0.4500882
H           0.4578201    -2.7140105    -0.2609371
O           1.5207936    -0.3304483    -2.1653584
18
251_C7H7ClN2O_13-0-1-8 (-105,) energy =    -915.8779716
C           1.5927073    -1.2327469    -1.3441031
N           2.8643478    -1.6662411    -0.8368900
H           2.7061881    -2.2922200    -0.0487691
C           5.4903737     1.1370759     0.7832004
H           6.1499360     1.8516909     1.2648606
C           4.7053036     0.2681043     1.5356472
H           4.7435161     0.2756044     2.6227852
N           3.8612623    -0.6120130     0.9865896
C           3.7735589    -0.6887538    -0.3445947
C           4.5716139     0.1085338    -1.1872824
Cl          4.5878334    -0.0953127    -2.9192916
C           5.4241358     1.0446073    -0.6061258
H           6.0411549     1.6709896    -1.2419286
C           0.4265581    -1.5096014    -0.4110318
H          -0.5117270    -1.2698556    -0.9134394
H           0.5432285    -0.8742084     0.4755518
H           0.4019624    -2.5503624    -0.0659755
O           1.4869358    -0.5840909    -2.3580540
18
251_C7H7ClN2O_13-0-1-8 (-90,) energy =    -915.8764034
C           1.8019399    -1.7854206    -1.1280216
N           2.6548838    -1.5486199     0.0086297
H           2.9973793    -2.4456159     0.3485854
C           5.7973355     1.0572435     0.8286996
H           6.6260840     1.6945111     1.1178154
C           5.5074874    -0.1150548     1.5231890
H           6.1160930    -0.4269610     2.3697863
N           4.4944019    -0.9225030     1.2131844
C           3.6939247    -0.6246953     0.1762475
C           3.9440901     0.5205535    -0.6090955
Cl          3.0211979     0.8982210    -2.0573565
C           4.9965601     1.3645833    -0.2680297
H           5.1855773     2.2444250    -0.8744147
C           0.5245537    -0.9766038    -1.1638951
H           0.1439983    -0.9131943    -2.1854333
H           0.6351601     0.0196794    -0.7341790
H          -0.2058828    -1.5263753    -0.5560932
O           1.9819529    -2.7641533    -1.8180442
18
251_C7H7ClN2O_13-0-1-8 (-75,) energy =    -915.8806184
C           1.1317470    -1.0267526     0.0555392
N           1.8483531     0.2183039     0.0129463
H           1.4541300     0.7446339     0.7950500
C           5.9586138     0.3912870     0.7555048
H           7.0120835     0.4414905     1.0111848
C           4.9748328     0.5488417     1.7298212
H           5.2416898     0.7404835     2.7668756
N           3.6673698     0.4731093     1.4678266
C           3.2606584     0.2547716     0.2132211
C           4.1850728     0.1476749    -0.8423475
Cl          3.6716455     0.0331180    -2.5143118
C           5.5486120     0.1965552    -0.5612928
H           6.2671998     0.1080446    -1.3694397
C           1.2697614    -1.9435275    -1.1367755
H           0.8945320    -1.4219307    -2.0230124
H           0.6817390    -2.8443273    -0.9558650
H           2.3097774    -2.2155124    -1.3406756
O           0.3061057    -1.2019936     0.9271650
18
251_C7H7ClN2O_13-0-1-8 (-60,) energy =    -915.8849733
C           1.0675663    -0.9506002     0.0314960
N           1.8328123     0.2495465     0.0611131
H           1.4343433     0.8001032     0.8221271
C           5.9566549     0.3314662     0.7152736
H           7.0162095     0.3552422     0.9487178
C           4.9981337     0.4569156     1.7194622
H           5.2912710     0.5962403     2.7577852
N           3.6841433     0.4108037     1.4853574
C           3.2465512     0.2566060     0.2314060
C           4.1439942     0.1877903    -0.8500709
Cl          3.5898374     0.1603272    -2.5119657
C           5.5145454     0.2042485    -0.5991398
H           6.2132075     0.1439504    -1.4270962
C           1.3906225    -1.9581800    -1.0476101
H           1.1126216    -1.5358198    -2.0184072
H           0.8097735    -2.8626934    -0.8620524
H           2.4556762    -2.2048022    -1.0928069
O           0.0932009    -1.0479303     0.7507589
18
251_C7H7ClN2O_13-0-1-8 (-45,) energy =    -915.8880875
C           0.9894284    -0.9047519    -0.0683380
N           1.7827566     0.2566141     0.0737704
H           1.3600173     0.8118052     0.8159294
C           5.9097232     0.3340297     0.6774072
H           6.9720801     0.3547755     0.8980623
C           4.9632329     0.4272083     1.6967131
H           5.2698246     0.5379705     2.7346134
N           3.6466515     0.3822383     1.4784613
C           3.1940705     0.2620774     0.2255959
C           4.0780325     0.2303444    -0.8688151
Cl          3.5034544     0.2539974    -2.5234572
C           5.4516699     0.2437900    -0.6344481
H           6.1399134     0.2108809    -1.4725945
C           1.4660532    -1.9788046    -1.0202621
H           1.3076953    -1.6422084    -2.0495899
H           0.8750940    -2.8783195    -0.8421146
H           2.5302977    -2.2062593    -0.9076813
O          -0.0940716    -0.9490402     0.4828675
18
251_C7H7ClN2O_13-0-1-8 (-30,) energy =    -915.8898646
C           0.9395262    -0.8847148    -0.1356327
N           1.7585564     0.2251068     0.1387207
H           1.3219500     0.7789120     0.8714793
C           5.8933644     0.3291932     0.6425922
H           6.9603887     0.3537527     0.8388909
C           4.9698992     0.4013296     1.6846105
H           5.2997629     0.5008730     2.7165455
N           3.6492929     0.3477635     1.4968188
C           3.1676426     0.2411880     0.2526411
C           4.0267014     0.2378127    -0.8626592
Cl          3.4154779     0.2963995    -2.5034178
C           5.4051635     0.2567426    -0.6593972
H           6.0737750     0.2436748    -1.5138196
C           1.5022299    -2.0057650    -0.9821109
H           1.4218394    -1.7402924    -2.0407873
H           0.9004775    -2.8971596    -0.7978916
H           2.5540136    -2.2174336    -0.7696483
O          -0.2099937    -0.8807405     0.2653528
18
251_C7H7ClN2O_13-0-1-8 (-15,) energy =    -915.8905357
C           0.9123371    -0.8634478    -0.2145580
N           1.7547484     0.1739909     0.2038932
H           1.3031181     0.7310791     0.9230065
C           5.8927315     0.3231226     0.6205640
H           6.9630446     0.3569760     0.7962648
C           4.9893444     0.3817860     1.6808698
H           5.3374006     0.4811771     2.7068850
N           3.6662652     0.3139734     1.5191986
C           3.1603254     0.2076206     0.2838792
C           3.9975456     0.2233312    -0.8489691
Cl          3.3560561     0.2981809    -2.4777653
C           5.3791570     0.2539712    -0.6718479
H           6.0307316     0.2543083    -1.5394509
C           1.5110895    -2.0281152    -0.9758474
H           1.4500145    -1.8367518    -2.0514958
H           0.9076357    -2.9098246    -0.7513276
H           2.5569517    -2.2208217    -0.7234386
O          -0.2761378    -0.7974382     0.0443793
18
251_C7H7ClN2O_13-0-1-8 (0,) energy =    -915.8904091
C           0.9221552    -0.8281797    -0.2733199
N           1.7771752     0.1212190     0.2904614
H           1.3105026     0.6801360     0.9971599
C           5.9147039     0.3672703     0.6218180
H           6.9871485     0.4231196     0.7775040
C           5.0290345     0.4074838     1.6979750
H           5.3941546     0.5160537     2.7171585
N           3.7055470     0.3096625     1.5614709
C           3.1781342     0.1915621     0.3353223
C           3.9945255     0.2300984    -0.8130899
Cl          3.3233324     0.3062931    -2.4305800
C           5.3781247     0.2894075    -0.6605751
H           6.0129039     0.3062812    -1.5404006
C           1.5236740    -2.0265400    -0.9810604
H           1.3919227    -1.9213078    -2.0617959
H           0.9574708    -2.9047012    -0.6602671
H           2.5845789    -2.1785386    -0.7718981
O          -0.2809798    -0.6989219    -0.1305772
18
251_C7H7ClN2O_13-0-1-8 (15,) energy =    -915.8896894
C           0.8975008    -0.8046367    -0.3134528
N           1.7696067     0.0404728     0.3721291
H           1.2970784     0.6325993     1.0465906
C           5.9080516     0.3454029     0.6166645
H           6.9825128     0.4148541     0.7514139
C           5.0424748     0.3723463     1.7094075
H           5.4257514     0.4843585     2.7215723
N           3.7182901     0.2565829     1.5988154
C           3.1676943     0.1342839     0.3829987
C           3.9618893     0.1865981    -0.7813497
Cl          3.2609706     0.2625822    -2.3869849
C           5.3471602     0.2635353    -0.6549672
H           5.9642355     0.2912842    -1.5470430
C           1.4632285    -2.0535214    -0.9631297
H           1.2558556    -2.0369099    -2.0362525
H           0.9237021    -2.9038721    -0.5347517
H           2.5342376    -2.1938166    -0.8073607
O          -0.3001062    -0.5837848    -0.2745074
18
251_C7H7ClN2O_13-0-1-8 (30,) energy =    -915.8883819
C           0.9155208    -0.8150900    -0.4185995
N           1.7827087    -0.0679235     0.3800674
H           1.3006288     0.5630935     1.0116357
C           5.9142550     0.3468813     0.5918802
H           6.9873667     0.4426517     0.7208762
C           5.0521153     0.3652991     1.6875180
H           5.4368048     0.4977467     2.6967138
N           3.7311163     0.2161627     1.5840525
C           3.1770762     0.0684245     0.3724292
C           3.9658435     0.1278026    -0.7958795
Cl          3.2604166     0.1759736    -2.4016519
C           5.3494624     0.2388958    -0.6758445
H           5.9616661     0.2723451    -1.5710934
C           1.4380529    -2.1152989    -1.0008699
H           1.1826145    -2.1740771    -2.0614109
H           0.9088133    -2.9239340    -0.4850136
H           2.5119118    -2.2631235    -0.8752774
O          -0.2599119    -0.5032923    -0.4842782
18
251_C7H7ClN2O_13-0-1-8 (45,) energy =    -915.8863339
C           0.9290757    -0.7977983    -0.4426095
N           1.8025749    -0.1694664     0.4552257
H           1.3224124     0.4750097     1.0759458
C           5.9224014     0.3902374     0.5934705
H           6.9936031     0.5205201     0.7067380
C           5.0741395     0.3883357     1.7000059
H           5.4669143     0.5398145     2.7034673
N           3.7580673     0.1961133     1.6148196
C           3.1901205     0.0236673     0.4122213
C           3.9618622     0.1005556    -0.7667516
Cl          3.2420126     0.1204408    -2.3680787
C           5.3427522     0.2567732    -0.6647021
H           5.9408294     0.3040866    -1.5688427
C           1.3710077    -2.1372052    -1.0011972
H           1.0634841    -2.2248174    -2.0453154
H           0.8392986    -2.9042334    -0.4261380
H           2.4430596    -2.3228487    -0.9144486
O          -0.2079511    -0.3830452    -0.5682915
18
251_C7H7ClN2O_13-0-1-8 (60,) energy =    -915.8834056
C           0.9788398    -0.7782893    -0.5218602
N           1.8622590    -0.2890161     0.4633136
H           1.3856683     0.3427502     1.1014540
C           5.9530184     0.4648179     0.6095751
H           7.0159080     0.6466456     0.7290148
C           5.0949397     0.4425636     1.7078598
H           5.4699127     0.6275739     2.7125625
N           3.7899099     0.1914319     1.6140414
C           3.2386443    -0.0266438     0.4103581
C           4.0194688     0.0588056    -0.7623776
Cl          3.3249166     0.0069508    -2.3753920
C           5.3901658     0.2816167    -0.6498500
H           5.9934466     0.3384012    -1.5499964
C           1.3016400    -2.1494068    -1.0826770
H           0.9644558    -2.2212766    -2.1186433
H           0.7300257    -2.8696046    -0.4849235
H           2.3587952    -2.4130991    -1.0148062
O          -0.0987134    -0.2409751    -0.6863983
18
251_C7H7ClN2O_13-0-1-8 (75,) energy =    -915.8798542
C           1.0490339    -0.7680214    -0.5580049
N           1.9720007    -0.4354075     0.4743038
H           1.5115829     0.1393532     1.1767505
C           6.0037062     0.5942209     0.6253088
H           7.0502414     0.8510642     0.7500796
C           5.1349986     0.5434743     1.7139561
H           5.4841468     0.7783087     2.7176052
N           3.8497451     0.2094085     1.6128757
C           3.3263794    -0.0786268     0.4104803
C           4.1185881     0.0148497    -0.7535893
Cl          3.4587447    -0.1580364    -2.3740671
C           5.4685875     0.3355381    -0.6330199
H           6.0778383     0.4020124    -1.5284978
C           1.2168006    -2.1433698    -1.1694369
H           0.8186966    -2.1574638    -2.1860469
H           0.6190520    -2.8279270    -0.5546571
H           2.2488178    -2.4981834    -1.1633015
O           0.0432570    -0.1044075    -0.7005784
18
251_C7H7ClN2O_13-0-1-8 (90,) energy =    -915.8764034
C           1.0810222    -0.7792620    -0.5667819
N           2.0534017    -0.6077080     0.4823191
H           1.6094953    -0.1194748     1.2582382
C           5.9984943     0.7148263     0.6410464
H           7.0210351     1.0533688     0.7688031
C           5.1205799     0.6362458     1.7197964
H           5.4382048     0.9252488     2.7197989
N           3.8610233     0.2157877     1.6142042
C           3.3762362    -0.1525756     0.4167148
C           4.1843595    -0.0608175    -0.7363065
Cl          3.5755463    -0.3976877    -2.3511398
C           5.5028921     0.3664590    -0.6125615
H           6.1211913     0.4355106    -1.5016565
C           1.0724416    -2.1376434    -1.2315477
H           0.6169413    -2.0727317    -2.2218455
H           0.4453322    -2.7842740    -0.6040032
H           2.0624251    -2.5908799    -1.2946279
O           0.1729168     0.0142407    -0.6770137
18
251_C7H7ClN2O_13-0-1-8 (105,) energy =    -915.8779716
C           1.3561753    -1.0746357    -1.0470302
N           1.8085133    -0.0494177    -0.1488330
H           1.4659793    -0.2601154     0.7872674
C           5.8963406     0.4466132     0.5029225
H           6.9544754     0.5375492     0.7260465
C           5.0291630    -0.1834929     1.3909354
H           5.3887177    -0.5880137     2.3345779
N           3.7234129    -0.3395357     1.1475592
C           3.2082507     0.1470054     0.0146365
C           3.9966544     0.8509161    -0.9157572
Cl          3.3087089     1.6321749    -2.3150469
C           5.3615640     0.9802149    -0.6685840
H           5.9838779     1.5144686    -1.3789419
C           0.8269289    -2.3175935    -0.3527092
H           0.3905157    -2.9932593    -1.0897915
H           0.0813269    -2.0840320     0.4169690
H           1.6691445    -2.8113228     0.1475385
O           1.5137608    -1.0033753    -2.2429004
18
251_C7H7ClN2O_13-0-1-8 (120,) energy =    -915.8834480
C           1.4295330    -1.1628048    -0.9906002
N           1.8798831    -0.1657819    -0.0822504
H           1.5358423    -0.3653156     0.8543574
C           5.9505873     0.5084789     0.4796541
H           7.0092780     0.6409226     0.6781362
C           5.1287575    -0.1501520     1.3905769
H           5.5253624    -0.5334885     2.3281723
N           3.8256109    -0.3595330     1.1773137
C           3.2696942     0.0983391     0.0526136
C           4.0046213     0.8347104    -0.8946818
Cl          3.2497972     1.5992435    -2.2684491
C           5.3692356     1.0180050    -0.6799011
H           5.9535855     1.5751170    -1.4047613
C           0.6493860    -2.2888557    -0.3326584
H           0.1628856    -2.8922421    -1.1004030
H          -0.1012144    -1.9268686     0.3797932
H           1.3600838    -2.9143101     0.2214185
O           1.7555254    -1.1808390    -2.1566071
18
251_C7H7ClN2O_13-0-1-8 (135,) energy =    -915.8883996
C           1.5163346    -1.2472757    -0.9623145
N           1.9617311    -0.2947986    -0.0211449
H           1.6113267    -0.4921083     0.9123473
C           5.9945232     0.5988445     0.4724762
H           7.0483268     0.7857800     0.6522822
C           5.2206366    -0.0907240     1.4027846
H           5.6507955    -0.4425435     2.3379515
N           3.9273292    -0.3688185     1.2121786
C           3.3329361     0.0470626     0.0907013
C           4.0130337     0.8150247    -0.8718312
Cl          3.1963082     1.5399873    -2.2319157
C           5.3700149     1.0686425    -0.6810437
H           5.9135880     1.6487848    -1.4194250
C           0.5219025    -2.2477560    -0.3961478
H           0.0086587    -2.7498913    -1.2176082
H          -0.2155853    -1.7848736     0.2692554
H           1.0775014    -2.9955288     0.1829231
O           1.9688917    -1.3277351    -2.0843455
18
251_C7H7ClN2O_13-0-1-8 (150,) energy =    -915.8919365
C           1.5830495    -1.3400240    -0.9166292
N           2.0393441    -0.4397999     0.0585094
H           1.6872177    -0.6373670     0.9903340
C           6.0228352     0.6767195     0.4590661
H           7.0682518     0.9222825     0.6157625
C           5.3075110    -0.0466912     1.4105459
H           5.7746259    -0.3664838     2.3395100
N           4.0284855    -0.3976402     1.2488008
C           3.3891625    -0.0247892     0.1365878
C           4.0051153     0.7736469    -0.8441267
Cl          3.1227996     1.4456236    -2.1908049
C           5.3496436     1.1025908    -0.6839691
H           5.8447989     1.7056915    -1.4378291
C           0.4091262    -2.1893229    -0.4564916
H          -0.0844091    -2.6155366    -1.3310905
H          -0.3161262    -1.6183271     0.1334175
H           0.7844506    -3.0102674     0.1669373
O           2.1172734    -1.4720584    -1.9986888
18
251_C7H7ClN2O_13-0-1-8 (165,) energy =    -915.8934915
C           1.6399551    -1.4350811    -0.8790942
N           2.1231908    -0.5981426     0.1314081
H           1.7652223    -0.7897475     1.0611695
C           6.0374201     0.7559538     0.4507889
H           7.0688993     1.0646674     0.5867129
C           5.3812921     0.0012975     1.4206069
H           5.8818248    -0.2796290     2.3447885
N           4.1239192    -0.4277591     1.2833326
C           3.4438761    -0.1063535     0.1782101
C           3.9954753     0.7205741    -0.8179502
Cl          3.0540616     1.3337571    -2.1534853
C           5.3205283     1.1296649    -0.6836659
H           5.7655915     1.7543299    -1.4510853
C           0.3247104    -2.1121487    -0.5273931
H          -0.1475509    -2.4569230    -1.4483768
H          -0.3554194    -1.4415338     0.0079085
H           0.5163888    -2.9847512     0.1096343
O           2.2257628    -1.6144453    -1.9281638
18
251_C7H7ClN2O_13-0-1-8 (180,) energy =    -915.8934196
C           1.6985013    -1.4642439    -0.9798778
N           2.2196131    -0.7500636     0.1003145
H           1.8885937    -1.0123015     1.0212730
C           6.0214575     0.8972165     0.3794130
H           7.0294722     1.2801059     0.5018085
C           5.4646199     0.0289436     1.3157676
H           6.0208174    -0.2694878     2.2019157
N           4.2421652    -0.4931240     1.1902047
C           3.4948123    -0.1575300     0.1328190
C           3.9407060     0.7787158    -0.8196284
Cl          2.9039049     1.4055946    -2.0770979
C           5.2331357     1.2848969    -0.7015781
H           5.5962434     1.9940674    -1.4380987
C           0.2950143    -1.9947630    -0.7407555
H           0.1142206    -2.8316948    -1.4172015
H          -0.4284950    -1.2024593    -0.9660120
H           0.1289558    -2.3158997     0.2934473
O           2.2885953    -1.5904960    -2.0350634
