18
251_C7H7ClN2O_0-1-8-9 (-165,) energy =    -915.8934286
C           1.1971512    -0.9233367     0.0779593
N           2.4910448    -1.0456923    -0.4442978
H           2.5981705    -1.6987387    -1.2090266
C           5.9079596     1.1479101     0.4296321
H           6.7807027     1.7349422     0.6961097
C           4.7619340     1.1587976     1.2202209
H           4.7204840     1.7584740     2.1274547
N           3.6611328     0.4533450     0.9480156
C           3.6326645    -0.3005368    -0.1507893
C           4.7535298    -0.3737198    -1.0117275
Cl          4.7180738    -1.3810228    -2.4611563
C           5.8975411     0.3516525    -0.7163879
H           6.7572165     0.2945190    -1.3759524
C           0.2371244    -1.9411829    -0.5288737
H          -0.7387123    -1.8159762    -0.0589552
H           0.5891644    -2.9664639    -0.3646040
H           0.1345945    -1.7902943    -1.6105836
O           0.8608897    -0.1075889     0.9077762
18
251_C7H7ClN2O_0-1-8-9 (-150,) energy =    -915.8932319
C           1.2364030    -0.8707342    -0.0202908
N           2.5685029    -1.0752356    -0.3997992
H           2.7233179    -1.7421111    -1.1437400
C           5.8679225     1.2402970     0.5992631
H           6.7091614     1.8542855     0.9038352
C           4.7458537     1.1017576     1.4132056
H           4.6929583     1.6068870     2.3756527
N           3.6872337     0.3514387     1.0987141
C           3.6751904    -0.2880393    -0.0713118
C           4.7704741    -0.2043985    -0.9598721
Cl          4.7529496    -1.0647850    -2.4994959
C           5.8777982     0.5583219    -0.6175403
H           6.7213996     0.6208205    -1.2970434
C           0.3021516    -1.9496633    -0.5537371
H          -0.7200077    -1.5703852    -0.5174999
H           0.3661528    -2.8403770     0.0828842
H           0.5427968    -2.2511815    -1.5795511
O           0.8570807     0.0456312     0.6760691
18
251_C7H7ClN2O_0-1-8-9 (-135,) energy =    -915.8925736
C           1.2625095    -0.8475452    -0.0871327
N           2.6045941    -1.1695579    -0.3228417
H           2.7747507    -1.8790133    -1.0232237
C           5.8427500     1.2614859     0.6041269
H           6.6676094     1.9042044     0.8942478
C           4.7674699     1.0400966     1.4629299
H           4.7359071     1.5089947     2.4443502
N           3.7339083     0.2484344     1.1678308
C           3.7002545    -0.3479921    -0.0246175
C           4.7412938    -0.1737472    -0.9599173
Cl          4.6866031    -0.9720146    -2.5298818
C           5.8288373     0.6273851    -0.6374613
H           6.6351838     0.7582102    -1.3515488
C           0.3003059    -1.9258856    -0.5657740
H          -0.6906264    -1.4828787    -0.6749500
H           0.2442808    -2.7246524     0.1834333
H           0.6052653    -2.3774485    -1.5165333
O           0.8983966     0.1660348     0.4696407
18
251_C7H7ClN2O_0-1-8-9 (-120,) energy =    -915.8913095
C           1.2979126    -0.8204016    -0.1427677
N           2.6301073    -1.2444825    -0.2195434
H           2.8110340    -2.0045106    -0.8627568
C           5.8255446     1.2891368     0.5865599
H           6.6382478     1.9589443     0.8488010
C           4.8111243     1.0001247     1.4984883
H           4.8159305     1.4435812     2.4920574
N           3.7971916     0.1717748     1.2381598
C           3.7242795    -0.3962074     0.0337546
C           4.6953580    -0.1467703    -0.9549287
Cl          4.5788541    -0.8986851    -2.5422517
C           5.7671947     0.6913823    -0.6709061
H           6.5236863     0.8795629    -1.4255531
C           0.3024856    -1.8853261    -0.5785118
H          -0.6431364    -1.3988131    -0.8219805
H           0.1323301    -2.5847044     0.2486223
H           0.6491394    -2.4640463    -1.4419667
O           0.9667337     0.2701388     0.2729165
18
251_C7H7ClN2O_0-1-8-9 (-105,) energy =    -915.8895386
C           1.3333041    -0.8133921    -0.2180601
N           2.6380459    -1.3036499    -0.1174278
H           2.8381035    -2.1356534    -0.6586604
C           5.8121903     1.2953374     0.5820580
H           6.6185940     1.9823426     0.8185433
C           4.8691059     0.9389000     1.5457927
H           4.9245308     1.3465283     2.5529900
N           3.8655864     0.0886757     1.3159802
C           3.7363595    -0.4379612     0.0982221
C           4.6290494    -0.1172212    -0.9397197
Cl          4.4322698    -0.8127113    -2.5418005
C           5.6910382     0.7467918    -0.6924560
H           6.3895824     0.9911141    -1.4858509
C           0.3116592    -1.8691693    -0.6117004
H          -0.5731067    -1.3680652    -1.0071624
H           0.0201367    -2.4413562     0.2769196
H           0.6953240    -2.5759528    -1.3558060
O           1.0382852     0.3361060     0.0405627
18
251_C7H7ClN2O_0-1-8-9 (-90,) energy =    -915.8901497
C           1.3672745    -0.8650287    -0.6996024
N           2.6270107    -1.3501659    -0.3303211
H           2.5981716    -2.1235677     0.3268487
C           5.7481901     1.2150655     0.6738953
H           6.5526247     1.8709289     0.9916799
C           4.8644022     0.6685095     1.6024917
H           4.9689574     0.8799618     2.6644481
N           3.8516060    -0.1352700     1.2617665
C           3.6707627    -0.4318279    -0.0258627
C           4.5397032     0.0341335    -1.0251745
Cl          4.3328437    -0.4282626    -2.6958738
C           5.5826597     0.8862402    -0.6696339
H           6.2534418     1.2669076    -1.4326531
C           0.2541210    -1.8937936    -0.5912526
H          -0.6708269    -1.4483359    -0.9587851
H           0.1111080    -2.2087209     0.4497364
H           0.4907653    -2.7859744    -1.1818301
O           1.2039031     0.2662250    -1.1138164
18
251_C7H7ClN2O_0-1-8-9 (-75,) energy =    -915.8926208
C           1.3938440    -0.8949604    -0.7673806
N           2.6042924    -1.3339500    -0.2160023
H           2.5036204    -2.0109040     0.5336660
C           5.7688876     1.2122579     0.6705683
H           6.5830861     1.8680179     0.9621505
C           4.9605182     0.6064736     1.6299691
H           5.1372410     0.7667735     2.6913516
N           3.9337107    -0.1919744     1.3216300
C           3.6677317    -0.4339720     0.0360510
C           4.4683854     0.0806428    -0.9981713
Cl          4.2017221    -0.3542098    -2.6670857
C           5.5183025     0.9353697    -0.6718828
H           6.1352710     1.3538536    -1.4601618
C           0.2627473    -1.9010893    -0.6334354
H          -0.6154350    -1.5094869    -1.1476960
H           0.0128935    -2.0715602     0.4210748
H           0.5446868    -2.8651839    -1.0711311
O           1.2813715     0.1764323    -1.3294709
18
251_C7H7ClN2O_0-1-8-9 (-60,) energy =    -915.8936161
C           1.5010218    -1.0128368    -0.7700608
N           2.6284430    -1.3515649    -0.0181698
H           2.4621590    -1.9407000     0.7896389
C           5.8750770     1.1303110     0.7281033
H           6.7014654     1.7844184     0.9869769
C           5.0892108     0.5393810     1.7149718
H           5.2988873     0.7054977     2.7694865
N           4.0438535    -0.2458412     1.4425359
C           3.7385663    -0.5042492     0.1666649
C           4.5247098    -0.0199681    -0.8955324
Cl          4.2806821    -0.5229414    -2.5492619
C           5.5881165     0.8306989    -0.6015699
H           6.1929593     1.2259112    -1.4109764
C           0.3773122    -2.0319853    -0.6755181
H          -0.5560477    -1.5504981    -0.9709847
H           0.2701164    -2.4541914     0.3297572
H           0.5772037    -2.8590351    -1.3670533
O           1.4456705    -0.0207251    -1.4700055
18
251_C7H7ClN2O_0-1-8-9 (-45,) energy =    -915.8928293
C           1.4995790    -1.0321154    -0.8153774
N           2.5697476    -1.2551809     0.0494778
H           2.3832750    -1.8106130     0.8757386
C           5.9124416     1.1084632     0.7345645
H           6.7545822     1.7440452     0.9881023
C           5.1562442     0.4863891     1.7256804
H           5.4064426     0.6029905     2.7781088
N           4.0889533    -0.2683401     1.4605842
C           3.7303247    -0.4783367     0.1869853
C           4.4933892     0.0279359    -0.8844812
Cl          4.2491703    -0.4562478    -2.5448083
C           5.5769863     0.8550399    -0.5926632
H           6.1628204     1.2651102    -1.4087279
C           0.3963857    -2.0715244    -0.6932700
H          -0.5243144    -1.6519135    -1.1012755
H           0.2263558    -2.3902263     0.3411784
H           0.6643832    -2.9596786    -1.2778186
O           1.4605846    -0.1098359    -1.6059026
18
251_C7H7ClN2O_0-1-8-9 (-30,) energy =    -915.8907172
C           1.4900700    -1.0451682    -0.8727185
N           2.5134947    -1.1266024     0.0677568
H           2.3259117    -1.6645556     0.9052368
C           5.9644905     1.0760182     0.7495012
H           6.8295606     1.6754862     1.0130623
C           5.2100831     0.4288011     1.7257721
H           5.4842175     0.4854668     2.7772738
N           4.1161693    -0.2786120     1.4475096
C           3.7205956    -0.4235360     0.1728710
C           4.4820569     0.1067912    -0.8902488
Cl          4.2330599    -0.3073445    -2.5697055
C           5.5951638     0.8880140    -0.5786988
H           6.1785319     1.3135613    -1.3886241
C           0.4211135    -2.1114444    -0.6827626
H          -0.4688104    -1.8135329    -1.2386116
H           0.1594651    -2.2579873     0.3715151
H           0.7780159    -3.0710414    -1.0754352
O           1.4447168    -0.2074816    -1.7517213
18
251_C7H7ClN2O_0-1-8-9 (-15,) energy =    -915.8880769
C           1.5716345    -0.9800383    -1.0267058
N           2.5381198    -0.9151598    -0.0254583
H           2.3310859    -1.4169421     0.8302900
C           6.0917510     1.0776018     0.7828422
H           6.9804116     1.6195928     1.0885557
C           5.2933561     0.4123296     1.7101226
H           5.5520315     0.3961716     2.7669677
N           4.1750743    -0.2274808     1.3764894
C           3.7846595    -0.2847099     0.0907795
C           4.5837450     0.2762590    -0.9298735
Cl          4.3505535     0.0023420    -2.6404323
C           5.7284407     0.9825485    -0.5560979
H           6.3396306     1.4278690    -1.3342177
C           0.5180377    -2.0458333    -0.7538008
H          -0.3409208    -1.8564097    -1.3986124
H           0.1921500    -2.0511604     0.2927781
H           0.9210488    -3.0394497    -0.9838839
O           1.5422669    -0.2578786    -2.0024630
18
251_C7H7ClN2O_0-1-8-9 (0,) energy =    -915.8860568
C           1.6083878    -1.2763224    -1.1162248
N           2.5280708    -0.9780292    -0.1117539
H           2.2872497    -1.3412699     0.8037934
C           6.1051182     0.9456652     0.8095389
H           7.0315368     1.4019911     1.1416212
C           5.2991452     0.2183749     1.6801070
H           5.5701807     0.0880146     2.7258776
N           4.1631402    -0.3595516     1.3001583
C           3.7284368    -0.2583190     0.0288277
C           4.4714103     0.4795734    -0.9201400
Cl          4.0145197     0.7610645    -2.5825328
C           5.6668487     1.0705429    -0.5034184
H           6.2409953     1.6347001    -1.2308051
C           0.3990478    -2.0275591    -0.5645647
H          -0.1509642    -2.4530332    -1.4045627
H          -0.2608597    -1.3360442    -0.0266153
H           0.6839365    -2.8286371     0.1267869
O           1.7113167    -0.9892252    -2.2899475
18
251_C7H7ClN2O_0-1-8-9 (15,) energy =    -915.8880767
C           1.7584312    -1.4299492    -1.0778968
N           2.5162518    -0.9884085     0.0046133
H           2.1768789    -1.2483633     0.9234702
C           6.1475667     0.8899055     0.7381507
H           7.1145537     1.3058172     1.0006166
C           5.3892227     0.1773834     1.6639252
H           5.7339916     0.0381687     2.6865955
N           4.2187568    -0.3811668     1.3651616
C           3.6965595    -0.2435590     0.1334341
C           4.3479124     0.5451835    -0.8405215
Cl          3.6323430     1.0509483    -2.3530507
C           5.5959064     1.0843693    -0.5234670
H           6.1082249     1.6798807    -1.2719452
C           0.3972006    -1.9684063    -0.6563664
H          -0.0274459    -2.5269095    -1.4913045
H          -0.2750361    -1.1391865    -0.4053239
H           0.4635966    -2.6225054     0.2208590
O           2.1358601    -1.4197917    -2.2319404
18
251_C7H7ClN2O_0-1-8-9 (30,) energy =    -915.8907169
C           1.8108806    -1.4544055    -1.0278313
N           2.4428411    -0.8963111     0.0802881
H           2.0637974    -1.1281259     0.9905445
C           6.1619087     0.8430643     0.6894842
H           7.1525776     1.2266424     0.9100083
C           5.4336100     0.1325658     1.6412456
H           5.8286881    -0.0336931     2.6413789
N           4.2346175    -0.3929413     1.3945797
C           3.6603028    -0.2128797     0.1946211
C           4.2761154     0.5830982    -0.7946096
Cl          3.4669449     1.1423461    -2.2391167
C           5.5535123     1.0822507    -0.5387172
H           6.0423273     1.6823979    -1.2991510
C           0.4158084    -1.9768405    -0.7169694
H           0.1069749    -2.6428431    -1.5236297
H          -0.2913525    -1.1408493    -0.6584027
H           0.3750155    -2.5167321     0.2361061
O           2.3178590    -1.5274844    -2.1296493
18
251_C7H7ClN2O_0-1-8-9 (45,) energy =    -915.8928294
C           1.8455519    -1.4415301    -0.9790343
N           2.3651780    -0.7580711     0.1195033
H           1.9701581    -0.9782678     1.0260825
C           6.1686071     0.8120597     0.6654570
H           7.1762440     1.1624741     0.8637266
C           5.4574554     0.0880958     1.6200044
H           5.8862067    -0.1229078     2.5974719
N           4.2340573    -0.3969303     1.4030292
C           3.6294856    -0.1594923     0.2313182
C           4.2308878     0.6469009    -0.7560100
Cl          3.3773441     1.2312700    -2.1634139
C           5.5285313     1.1060906    -0.5354898
H           6.0094698     1.7141202    -1.2946581
C           0.4426536    -1.9797716    -0.7453593
H           0.2249078    -2.7269788    -1.5095665
H          -0.2858463    -1.1647711    -0.8305575
H           0.3268726    -2.4290208     0.2476305
O           2.4467704    -1.5773163    -2.0263205
18
251_C7H7ClN2O_0-1-8-9 (60,) energy =    -915.8936210
C           1.8720052    -1.4571647    -0.9411146
N           2.3013603    -0.6386450     0.1065750
H           1.8804788    -0.8163619     1.0114487
C           6.1693773     0.7757768     0.6453957
H           7.1863339     1.1017350     0.8385688
C           5.4688625     0.0157996     1.5794568
H           5.9191563    -0.2520178     2.5329239
N           4.2287799    -0.4340161     1.3714521
C           3.6091456    -0.1295086     0.2263443
C           4.2052378     0.7022041    -0.7400023
Cl          3.3370063     1.2946576    -2.1337906
C           5.5137832     1.1320670    -0.5308128
H           5.9931317     1.7596970    -1.2747766
C           0.4701854    -2.0110866    -0.7442748
H           0.3196867    -2.8348151    -1.4432549
H          -0.2685026    -1.2290308    -0.9559452
H           0.2993831    -2.3641841     0.2790768
O           2.5417855    -1.6679182    -1.9331061
18
251_C7H7ClN2O_0-1-8-9 (75,) energy =    -915.8925870
C           1.8912561    -1.4802391    -0.8968334
N           2.2534046    -0.5222838     0.0581138
H           1.8017010    -0.6333051     0.9598847
C           6.1668608     0.7522527     0.6459420
H           7.1881091     1.0556154     0.8533281
C           5.4674808    -0.0602752     1.5356130
H           5.9254146    -0.3961527     2.4634672
N           4.2164055    -0.4768632     1.3158906
C           3.5958427    -0.0944560     0.1976284
C           4.1984741     0.7770230    -0.7258320
Cl          3.3324015     1.3846449    -2.1138701
C           5.5119906     1.1837226    -0.5058365
H           5.9967556     1.8429658    -1.2182517
C           0.4902453    -2.0375251    -0.7077890
H           0.3762686    -2.9175047    -1.3420178
H          -0.2499235    -1.2861550    -1.0070594
H           0.2879032    -2.3093049     0.3345029
O           2.6147607    -1.7840865    -1.8248553
18
251_C7H7ClN2O_0-1-8-9 (90,) energy =    -915.8900691
C           1.9172501    -1.5402038    -0.8499390
N           2.2271923    -0.4510063    -0.0287633
H           1.7099685    -0.4246747     0.8439906
C           6.1617737     0.7320568     0.6412868
H           7.1845094     1.0157524     0.8688629
C           5.4676722    -0.1538127     1.4632839
H           5.9333463    -0.5703686     2.3537964
N           4.2115358    -0.5432212     1.2217787
C           3.5867665    -0.0672677     0.1440945
C           4.1903999     0.8658971    -0.7135109
Cl          3.3277743     1.5359162    -2.0756521
C           5.5052682     1.2558669    -0.4701343
H           5.9905319     1.9646516    -1.1328602
C           0.5023461    -2.0670821    -0.6773456
H           0.4279056    -3.0361792    -1.1723472
H          -0.2082107    -1.3755037    -1.1451370
H           0.2223372    -2.1723001     0.3769232
O           2.6964664    -1.9696551    -1.6788072
18
251_C7H7ClN2O_0-1-8-9 (105,) energy =    -915.8895643
C           1.4874703    -1.2820240     0.1272775
N           2.2556027    -0.5162976    -0.7553586
H           2.1745843    -0.7686226    -1.7330618
C           5.8846407     1.1085250     0.4727623
H           6.8010693     1.5684650     0.8288215
C           4.6388760     1.5793044     0.8870068
H           4.5645217     2.4160840     1.5783487
N           3.4799848     1.0624977     0.4713692
C           3.5030474     0.0277034    -0.3685756
C           4.7144670    -0.5257121    -0.8199776
Cl          4.7231565    -1.9003688    -1.9156693
C           5.9213321     0.0311144    -0.4092309
H           6.8597702    -0.3839681    -0.7616504
C           0.2962747    -1.9565743    -0.5360626
H          -0.2297204    -2.5495344     0.2127399
H           0.6141468    -2.6123290    -1.3557757
H          -0.3872440    -1.2074534    -0.9517130
O           1.7354628    -1.3687750     1.3127998
18
251_C7H7ClN2O_0-1-8-9 (120,) energy =    -915.8913282
C           1.4221256    -1.2302037     0.1566159
N           2.3046585    -0.6206711    -0.7446996
H           2.2802840    -0.9814439    -1.6903597
C           5.8820640     1.1185259     0.4626753
H           6.7860434     1.6072398     0.8117633
C           4.6291403     1.5026887     0.9388078
H           4.5359574     2.3008747     1.6723516
N           3.4830772     0.9510036     0.5334274
C           3.5271889    -0.0422253    -0.3552772
C           4.7504054    -0.5070987    -0.8754494
Cl          4.7897116    -1.8259744    -2.0410590
C           5.9401739     0.0902416    -0.4761465
H           6.8847832    -0.2573067    -0.8812815
C           0.2621207    -1.9349261    -0.5314907
H          -0.3568179    -2.4099378     0.2302236
H           0.6175959    -2.6987010    -1.2338498
H          -0.3441233    -1.2168847    -1.0956150
O           1.5581009    -1.1807410     1.3608046
18
251_C7H7ClN2O_0-1-8-9 (135,) energy =    -915.8925859
C           1.3683704    -1.1927165     0.1744330
N           2.3615618    -0.7353645    -0.7015682
H           2.3703320    -1.1621969    -1.6189082
C           5.8848330     1.1406292     0.4474102
H           6.7762431     1.6627739     0.7796435
C           4.6342757     1.4399101     0.9853750
H           4.5293450     2.2063295     1.7506512
N           3.5016244     0.8442918     0.6055219
C           3.5584981    -0.1150217    -0.3192308
C           4.7827253    -0.4892806    -0.9111336
Cl          4.8415725    -1.7561577    -2.1347956
C           5.9547673     0.1534436    -0.5346498
H           6.8973430    -0.1269441    -0.9931458
C           0.2360168    -1.9126352    -0.5453394
H          -0.4729771    -2.2747783     0.1996999
H           0.6085553    -2.7627252    -1.1299006
H          -0.2782298    -1.2320539    -1.2338125
O           1.3973129    -1.0251906     1.3745277
18
251_C7H7ClN2O_0-1-8-9 (150,) energy =    -915.8932394
C           1.3154168    -1.1418720     0.1909526
N           2.4075677    -0.8357945    -0.6311141
H           2.4417166    -1.3159273    -1.5206656
C           5.8937932     1.1575895     0.4261600
H           6.7781421     1.7060789     0.7335955
C           4.6595897     1.3828453     1.0317733
H           4.5595178     2.1191991     1.8267616
N           3.5353986     0.7495692     0.6886425
C           3.5846020    -0.1756171    -0.2702176
C           4.7941751    -0.4698838    -0.9386619
Cl          4.8467202    -1.6862728    -2.2151242
C           5.9546465     0.2079035    -0.5937728
H           6.8834688    -0.0144582    -1.1087223
C           0.2240130    -1.8989095    -0.5558807
H          -0.5690306    -2.1464060     0.1502813
H           0.6099734    -2.8240062    -1.0013089
H          -0.1907879    -1.2851749    -1.3641442
O           1.2352722    -0.8413640     1.3619335
18
251_C7H7ClN2O_0-1-8-9 (165,) energy =    -915.8934361
C           1.2616297    -1.0728050     0.1877223
N           2.4388855    -0.9144918    -0.5542662
H           2.4933136    -1.4450131    -1.4134690
C           5.9058711     1.1590296     0.4094834
H           6.7881205     1.7232721     0.6933273
C           4.6991450     1.3184487     1.0854786
H           4.6172028     2.0183413     1.9148293
N           3.5792496     0.6587456     0.7786110
C           3.6026124    -0.2218825    -0.2215294
C           4.7853769    -0.4466510    -0.9654677
Cl          4.8103067    -1.6053652    -2.2970877
C           5.9410162     0.2512666    -0.6499169
H           6.8475022     0.0797163    -1.2210530
C           0.2212327    -1.9006780    -0.5592262
H          -0.6468980    -2.0271554     0.0881809
H           0.6143508    -2.8880034    -0.8305571
H          -0.0891947    -1.3975329    -1.4828027
O           1.0747825    -0.6141424     1.2931233
18
251_C7H7ClN2O_0-1-8-9 (180,) energy =    -915.8934422
C           1.2170269    -0.9940040     0.1485442
N           2.4645061    -0.9746763    -0.4884310
H           2.5519937    -1.5693559    -1.3016742
C           5.9076785     1.1590812     0.4307408
H           6.7857483     1.7343258     0.7051891
C           4.7296610     1.2453569     1.1670762
H           4.6663117     1.8956253     2.0374871
N           3.6178663     0.5633487     0.8792675
C           3.6154155    -0.2550385    -0.1724639
C           4.7701548    -0.4052311    -0.9785063
Cl          4.7685916    -1.4893690    -2.3726292
C           5.9201405     0.3058361    -0.6738650
H           6.8044314     0.1903235    -1.2919353
C           0.2349926    -1.9284319    -0.5514849
H          -0.6991060    -1.9283032     0.0107701
H           0.6251147    -2.9520688    -0.6025187
H           0.0363963    -1.5931877    -1.5767391
O           0.9311256    -0.3516497     1.1346191
