27
396_C12H12N2O_0-3-11-9 (-165,) energy =    -649.2334249
C           1.8580061    -2.8918416    -0.5820780
H           2.5171354    -2.8204334    -1.4600079
H           1.8265677    -3.9609084    -0.3392788
N           2.4103986    -2.1806893     0.5573398
H           2.6995448    -2.7682336     1.3258774
C           4.6064935     1.4107303     0.2742395
H           5.1694708     2.3372766     0.2120193
C           4.6290761     0.6415470     1.4412813
H           5.2148336     0.9665345     2.2976943
C           3.9090555    -0.5452543     1.5236288
H           3.9353976    -1.1350326     2.4382929
C           3.1445922    -1.0017423     0.4314452
C           3.1173209    -0.2212507    -0.7387130
H           2.5202537    -0.5331740    -1.5888639
C           3.8451751     0.9672704    -0.8067834
H           3.8104901     1.5520205    -1.7228050
C          -2.1031795    -1.7497962    -1.8408303
H          -3.0876679    -1.5343692    -2.2415335
N          -1.3655094    -2.6789287    -2.5200655
H          -1.7408048    -3.1318309    -3.3455627
C          -0.0723363    -3.1033806    -2.1704863
C           0.4650085    -2.4509299    -0.9836961
C          -0.2769495    -1.5248851    -0.3043898
H           0.1541333    -1.0643268     0.5802089
C          -1.5881442    -1.1544735    -0.7286676
H          -2.1658697    -0.4162779    -0.1855269
O           0.5046553    -3.9585483    -2.8434402
27
396_C12H12N2O_0-3-11-9 (-150,) energy =    -649.2333094
C           1.8069335    -2.8018944    -0.5499648
H           2.4975217    -2.6850322    -1.3977920
H           1.8236627    -3.8729842    -0.3136275
N           2.2732052    -2.0577405     0.6148172
H           2.5588027    -2.6549038     1.3792899
C           4.7327891     1.3570184     0.2721793
H           5.3637115     2.2373221     0.1921963
C           4.8179537     0.5211581     1.3887308
H           5.5232509     0.7448412     2.1853367
C           4.0158970    -0.6114120     1.4900577
H           4.0994997    -1.2605303     2.3600641
C           3.0922653    -0.9312861     0.4772734
C           3.0080060    -0.0872508    -0.6445084
H           2.2946246    -0.3033131    -1.4332576
C           3.8245822     1.0397160    -0.7381927
H           3.7425734     1.6775474    -1.6148759
C          -2.1591807    -1.8716907    -1.9564999
H          -3.1394280    -1.7104839    -2.3916266
N          -1.3611980    -2.7850731    -2.5875186
H          -1.6912919    -3.2754318    -3.4109088
C          -0.0621652    -3.1426710    -2.1884308
C           0.4094985    -2.4361347    -1.0046405
C          -0.3925063    -1.5261254    -0.3734365
H          -0.0077419    -1.0269139     0.5117511
C          -1.7048918    -1.2251276    -0.8465113
H          -2.3308993    -0.4996514    -0.3409849
O           0.5722002    -3.9886061    -2.8200484
27
396_C12H12N2O_0-3-11-9 (-135,) energy =    -649.2320394
C           1.7580038    -2.6901747    -0.4860559
H           2.4677904    -2.5515080    -1.3131453
H           1.8184996    -3.7560730    -0.2311862
N           2.1527048    -1.8960236     0.6801570
H           2.4054611    -2.4830612     1.4654225
C           4.8722015     1.3079237     0.2410939
H           5.5695801     2.1333457     0.1319508
C           5.0057974     0.4025361     1.2958176
H           5.8163371     0.5145263     2.0116624
C           4.1205114    -0.6646536     1.4302954
H           4.2464711    -1.3767018     2.2440899
C           3.0582372    -0.8320671     0.5255593
C           2.9291535     0.0793499    -0.5370015
H           2.1124749    -0.0334983    -1.2436558
C           3.8319585     1.1326837    -0.6735451
H           3.7138483     1.8270499    -1.5017612
C          -2.2005244    -1.9681247    -2.0268062
H          -3.1725862    -1.8596058    -2.4953318
N          -1.3365116    -2.8414371    -2.6271258
H          -1.6133146    -3.3502757    -3.4588810
C          -0.0352035    -3.1319132    -2.1834989
C           0.3601054    -2.3979362    -0.9883893
C          -0.5072511    -1.5272531    -0.3888361
H          -0.1743654    -1.0056844     0.5045874
C          -1.8172438    -1.2953248    -0.9056697
H          -2.4961571    -0.6015650    -0.4244011
O           0.6620614    -3.9460194    -2.7900876
27
396_C12H12N2O_0-3-11-9 (-120,) energy =    -649.2305366
C           0.8488346    -0.7516585    -0.9312388
H           0.6037799    -0.1736835    -0.0328578
H           0.7565462    -0.0381527    -1.7652875
N           2.2094729    -1.2814834    -0.7885141
H           2.5191910    -1.6617717    -1.6794011
C           5.2127465     1.2135767     0.8460727
H           5.9869116     1.8454923     1.2717202
C           5.3486505     0.7004891    -0.4439933
H           6.2298960     0.9357618    -1.0354652
C           4.3476678    -0.0995173    -0.9953487
H           4.4521837    -0.4766667    -2.0110859
C           3.2032469    -0.4284228    -0.2528620
C           3.0759658     0.0846230     1.0490126
H           2.2063698    -0.1786035     1.6446790
C           4.0676034     0.9027987     1.5844465
H           3.9506877     1.2890131     2.5938582
C          -2.1736279    -3.7709865    -1.4826772
H          -3.0018386    -4.4505606    -1.6515291
N          -2.4193748    -2.4478593    -1.7218961
H          -3.3348007    -2.1421234    -2.0314876
C          -1.4929717    -1.4035712    -1.5576610
C          -0.1758273    -1.8452754    -1.1133772
C           0.0654802    -3.1708626    -0.8739526
H           1.0548808    -3.4601731    -0.5301936
C          -0.9411092    -4.1657461    -1.0570021
H          -0.7376702    -5.2120724    -0.8631920
O          -1.8254418    -0.2399869    -1.7832233
27
396_C12H12N2O_0-3-11-9 (-105,) energy =    -649.2291983
C           0.8987102    -0.8071811    -0.9046589
H           0.6320735    -0.1861104    -0.0405221
H           0.8849229    -0.1218371    -1.7670824
N           2.2262623    -1.3894597    -0.6584691
H           2.5488256    -1.8317768    -1.5171739
C           5.1755127     1.2864199     0.7851560
H           5.9316119     1.9681181     1.1643616
C           5.2245244     0.8448124    -0.5371911
H           6.0170955     1.1868429    -1.1978705
C           4.2453826    -0.0208395    -1.0275993
H           4.2753868    -0.3441368    -2.0664257
C           3.2224834    -0.4870286    -0.1901612
C           3.1814108    -0.0430170     1.1403930
H           2.3979979    -0.4142003     1.7955145
C           4.1449897     0.8420714     1.6184380
H           4.1004982     1.1745644     2.6523975
C          -2.2092522    -3.7258188    -1.5173948
H          -3.0536852    -4.3789087    -1.7089413
N          -2.3838711    -2.4065229    -1.8292567
H          -3.2643854    -2.0796256    -2.2102162
C          -1.4262107    -1.3926296    -1.6526425
C          -0.1589065    -1.8647001    -1.1057826
C           0.0106990    -3.1864462    -0.7936408
H           0.9634378    -3.4975371    -0.3738674
C          -1.0232004    -4.1487928    -0.9973161
H          -0.8763341    -5.1922163    -0.7453309
O          -1.6954072    -0.2291545    -1.9509898
27
396_C12H12N2O_0-3-11-9 (-90,) energy =    -649.2275680
C           0.9361437    -0.8396330    -0.8797645
H           0.6417964    -0.1722241    -0.0592907
H           0.9970466    -0.1930546    -1.7699016
N           2.2248624    -1.4551757    -0.5227478
H           2.5609930    -1.9679017    -1.3374189
C           5.1541346     1.3365818     0.7433460
H           5.9019744     2.0502410     1.0779566
C           5.0803065     0.9763152    -0.6028893
H           5.7670035     1.4131866    -1.3234238
C           4.1127871     0.0670727    -1.0340499
H           4.0445449    -0.1979585    -2.0873592
C           3.2303341    -0.5196271    -0.1170873
C           3.3098846    -0.1538719     1.2329988
H           2.6272655    -0.6171135     1.9399422
C           4.2611693     0.7723655     1.6580186
H           4.3150064     1.0441879     2.7090681
C          -2.2237632    -3.6873426    -1.5586184
H          -3.0750411    -4.3234317    -1.7754845
N          -2.3297323    -2.3824329    -1.9513880
H          -3.1692594    -2.0497496    -2.4115886
C          -1.3517321    -1.3905673    -1.7606776
C          -0.1429643    -1.8709397    -1.0999166
C          -0.0424898    -3.1781679    -0.7065620
H           0.8667160    -3.4950204    -0.2030261
C          -1.0926728    -4.1175616    -0.9328971
H          -1.0004820    -5.1495407    -0.6161382
O          -1.5591503    -0.2379443    -2.1394105
27
396_C12H12N2O_0-3-11-9 (-75,) energy =    -649.2259605
C           0.9632240    -0.8569746    -0.9087518
H           0.6423627    -0.1264446    -0.1540166
H           1.0878917    -0.2764454    -1.8370474
N           2.2093649    -1.4783813    -0.4320579
H           2.5678178    -2.0676866    -1.1839203
C           5.1524288     1.3502207     0.7320833
H           5.9025761     2.0730936     1.0412565
C           4.9326421     1.1054624    -0.6249437
H           5.5085572     1.6401813    -1.3758923
C           3.9652069     0.1813332    -1.0221282
H           3.7859634    -0.0001041    -2.0798780
C           3.2251656    -0.5264158    -0.0653807
C           3.4475803    -0.2733121     1.2923767
H           2.8670783    -0.8278443     2.0239362
C           4.4044168     0.6615991     1.6893417
H           4.5721797     0.8459077     2.7473249
C          -2.2325354    -3.6705660    -1.5679663
H          -3.0870508    -4.3010243    -1.7885820
N          -2.2727452    -2.4003591    -2.0712101
H          -3.0701577    -2.0861614    -2.6121871
C          -1.2790196    -1.4210444    -1.8970028
C          -0.1310348    -1.8747106    -1.1190974
C          -0.0963046    -3.1473232    -0.6159025
H           0.7684099    -3.4436062    -0.0285786
C          -1.1576821    -4.0756627    -0.8355161
H          -1.1176171    -5.0799158    -0.4308950
O          -1.4261735    -0.2996775    -2.3828158
27
396_C12H12N2O_0-3-11-9 (-60,) energy =    -649.2285648
C           1.4466238    -1.2096247    -2.3369466
H           1.3193885    -0.1272290    -2.4519562
H           1.3921322    -1.5996582    -3.3606342
N           2.7884904    -1.4716106    -1.8186891
H           2.9469097    -2.4709790    -1.7237506
C           4.4390594     0.6093541     1.4776887
H           4.8834074     1.1451163     2.3114559
C           3.9300201     1.3055802     0.3778778
H           3.9896095     2.3906446     0.3473446
C           3.3729508     0.6247219    -0.7015436
H           3.0196752     1.1760160    -1.5682067
C           3.2685407    -0.7774238    -0.6851201
C           3.7998796    -1.4710046     0.4154022
H           3.7632543    -2.5593434     0.4291127
C           4.3810743    -0.7842608     1.4814826
H           4.7834371    -1.3457925     2.3209428
C          -2.0412872    -2.7291396    -0.2951407
H          -2.9797646    -3.0729840     0.1256911
N          -2.1154200    -2.1052355    -1.5089039
H          -3.0091368    -1.9797629    -1.9704827
C          -1.0246242    -1.5797035    -2.2209897
C           0.2656957    -1.7592636    -1.5598607
C           0.3316257    -2.3855720    -0.3454100
H           1.2927167    -2.4961923     0.1468739
C          -0.8329017    -2.8850481     0.3130562
H          -0.7635444    -3.3744832     1.2770045
O          -1.2022689    -1.0268881    -3.3064773
27
396_C12H12N2O_0-3-11-9 (-45,) energy =    -649.2307168
C           1.5141631    -1.3157041    -2.3799198
H           1.4096517    -0.2495843    -2.6087804
H           1.4862474    -1.8035066    -3.3618149
N           2.8257864    -1.5584092    -1.7939220
H           3.0235302    -2.5503246    -1.7136003
C           4.4010678     0.5865009     1.4926486
H           4.8243995     1.1374618     2.3272761
C           3.6827137     1.2495353     0.4949031
H           3.5505890     2.3274572     0.5465441
C           3.1419723     0.5537130    -0.5839454
H           2.6089974     1.0955183    -1.3590938
C           3.2876729    -0.8423714    -0.6768100
C           4.0187444    -1.5028428     0.3279929
H           4.1576878    -2.5810630     0.2636431
C           4.5702971    -0.7952943     1.3942616
H           5.1300305    -1.3330148     2.1555781
C          -2.0474759    -2.5672661    -0.2864382
H          -3.0014667    -2.8477555     0.1463628
N          -2.0889849    -2.0177661    -1.5372719
H          -2.9739850    -1.8885802    -2.0143683
C          -0.9731630    -1.5820991    -2.2709001
C           0.3026412    -1.7680241    -1.5862353
C           0.3374920    -2.3196169    -0.3348547
H           1.2918478    -2.4375089     0.1699753
C          -0.8503781    -2.7316468     0.3419062
H          -0.8074188    -3.1624969     1.3348963
O          -1.1195947    -1.0947066    -3.3920544
27
396_C12H12N2O_0-3-11-9 (-30,) energy =    -649.2320231
C           1.5690656    -1.4082441    -2.3816743
H           1.4973544    -0.3598760    -2.6924878
H           1.5626009    -1.9659436    -3.3260696
N           2.8495454    -1.6395368    -1.7375203
H           3.0985179    -2.6197516    -1.6822772
C           4.3785153     0.5885441     1.5096804
H           4.7891499     1.1605747     2.3363608
C           3.4658347     1.1685385     0.6269617
H           3.1617001     2.2034718     0.7632688
C           2.9321277     0.4447417    -0.4378994
H           2.2282303     0.9248474    -1.1096877
C           3.3012861    -0.8978166    -0.6410586
C           4.2231770    -1.4772656     0.2526464
H           4.5281973    -2.5121082     0.1053790
C           4.7533429    -0.7416557     1.3089189
H           5.4630569    -1.2167217     1.9817978
C          -2.0799546    -2.4204442    -0.3096314
H          -3.0521859    -2.6410545     0.1172125
N          -2.0777138    -1.9032987    -1.5748814
H          -2.9491435    -1.7444710    -2.0677632
C          -0.9318419    -1.5460965    -2.3048285
C           0.3228896    -1.7750220    -1.5963623
C           0.3146451    -2.2941894    -0.3310238
H           1.2573005    -2.4478409     0.1865361
C          -0.9006873    -2.6280169     0.3396430
H          -0.8922149    -3.0339447     1.3439501
O          -1.0382187    -1.0861379    -3.4420919
27
396_C12H12N2O_0-3-11-9 (-15,) energy =    -649.2326530
C           1.5438795    -1.5018969    -2.3468175
H           1.5120086    -0.4581340    -2.6813602
H           1.5501886    -2.0820390    -3.2776146
N           2.7905844    -1.7510209    -1.6554809
H           3.0836996    -2.7181980    -1.6312709
C           4.4159687     0.5958476     1.4522083
H           4.8496016     1.1980864     2.2449639
C           3.3488404     1.0783218     0.6940917
H           2.9421307     2.0661494     0.8967029
C           2.7804861     0.3132112    -0.3240574
H           1.9433909     0.7116738    -0.8872670
C           3.2832950    -0.9692450    -0.6130919
C           4.3597109    -1.4528053     0.1584238
H           4.7644307    -2.4406376    -0.0552336
C           4.9140083    -0.6796863     1.1731163
H           5.7442286    -1.0797353     1.7501188
C          -2.1842168    -2.3663669    -0.3508791
H          -3.1726247    -2.5499486     0.0558568
N          -2.1372152    -1.8740010    -1.6251103
H          -2.9914867    -1.6993830    -2.1421079
C          -0.9641150    -1.5648786    -2.3338821
C           0.2651115    -1.8167979    -1.5905763
C           0.2124305    -2.3113515    -0.3166893
H           1.1397506    -2.4845306     0.2223597
C          -1.0273880    -2.5963669     0.3307719
H          -1.0551037    -2.9835973     1.3420991
O          -1.0297542    -1.1251113    -3.4821728
27
396_C12H12N2O_0-3-11-9 (0,) energy =    -649.2327127
C           1.6050045    -1.5454015    -2.2741054
H           1.6134320    -0.4986569    -2.6055851
H           1.6510394    -2.1264214    -3.2031901
N           2.7910089    -1.8278643    -1.5011144
H           3.2222906    -2.7305015    -1.6266168
C           4.5403179     0.6350117     1.4365883
H           5.0011312     1.2663823     2.1903426
C           3.3750050     1.0385112     0.7845242
H           2.9174760     1.9934012     1.0319927
C           2.7712478     0.2350493    -0.1824582
H           1.8547255     0.5673626    -0.6582340
C           3.3388911    -1.0066391    -0.5283271
C           4.5154536    -1.4111523     0.1362861
H           4.9694340    -2.3666849    -0.1208098
C           5.1016014    -0.6007385     1.1021618
H           6.0095030    -0.9387567     1.5959006
C          -2.2400039    -2.3148629    -0.4744673
H          -3.2519482    -2.4709766    -0.1170866
N          -2.1174209    -1.8119374    -1.7396762
H          -2.9405268    -1.6058261    -2.2942353
C          -0.9028316    -1.5343438    -2.3894839
C           0.2794702    -1.8311652    -1.5905040
C           0.1524638    -2.3366275    -0.3265746
H           1.0515868    -2.5460279     0.2465495
C          -1.1246994    -2.5884316     0.2586901
H          -1.2130335    -2.9850152     1.2629405
O          -0.8993099    -1.0840509    -3.5357839
27
396_C12H12N2O_0-3-11-9 (15,) energy =    -649.2333747
C           1.5868364    -1.6537411    -2.1912271
H           1.6331443    -0.6131468    -2.5455792
H           1.6436226    -2.2635178    -3.1010038
N           2.7249659    -1.9806689    -1.3516704
H           3.3657051    -2.6550491    -1.7436108
C           4.5452804     0.7093533     1.3405801
H           5.0193262     1.3944755     2.0371302
C           3.2917869     0.9974135     0.8015885
H           2.7798869     1.9159336     1.0782196
C           2.6728049     0.1253796    -0.0948755
H           1.6907847     0.3674240    -0.4866816
C           3.3094826    -1.0710895    -0.4721120
C           4.5754284    -1.3581640     0.0765918
H           5.0806216    -2.2799701    -0.2065097
C           5.1802078    -0.4791843     0.9683217
H           6.1587753    -0.7249657     1.3735208
C          -2.3235913    -2.2636287    -0.4833782
H          -3.3487682    -2.3734169    -0.1469980
N          -2.1505614    -1.7187620    -1.7251588
H          -2.9510363    -1.4461668    -2.2840277
C          -0.9114968    -1.4923297    -2.3480882
C           0.2371427    -1.8855135    -1.5424939
C           0.0606609    -2.4336233    -0.3023557
H           0.9403375    -2.7210843     0.2668058
C          -1.2385154    -2.6322588     0.2536522
H          -1.3669752    -3.0635659     1.2391303
O          -0.8633217    -1.0059001    -3.4786698
27
396_C12H12N2O_0-3-11-9 (30,) energy =    -649.2333889
C           1.5957124    -1.6738858    -2.1147686
H           1.6839339    -0.6247033    -2.4323689
H           1.6868695    -2.2598184    -3.0375913
N           2.6817887    -2.0452152    -1.2153056
H           3.3228698    -2.7151034    -1.6187091
C           4.6461723     0.7503911     1.2648251
H           5.1539397     1.4610937     1.9101647
C           3.3220990     0.9608221     0.8791474
H           2.7880064     1.8413745     1.2277591
C           2.6597838     0.0528001     0.0529415
H           1.6229453     0.2263516    -0.2161154
C           3.3261916    -1.0926385    -0.4182819
C           4.6612293    -1.3018543    -0.0240644
H           5.1902593    -2.1847196    -0.3789364
C           5.3075537    -0.3923986     0.8072968
H           6.3403649    -0.5760445     1.0929885
C          -2.4075502    -2.2588798    -0.6294989
H          -3.4504563    -2.3630413    -0.3507078
N          -2.1620170    -1.7197722    -1.8616776
H          -2.9286229    -1.4454270    -2.4653596
C          -0.8887535    -1.5010061    -2.4144801
C           0.2107218    -1.8965783    -1.5440693
C          -0.0378526    -2.4394171    -0.3139232
H           0.8086940    -2.7302872     0.3021282
C          -1.3673809    -2.6296258     0.1686649
H          -1.5533598    -3.0570745     1.1466379
O          -0.7742295    -1.0187043    -3.5419911
27
396_C12H12N2O_0-3-11-9 (45,) energy =    -649.2322625
C           1.5909390    -1.7009892    -1.9910849
H           1.7052814    -0.6504123    -2.2913735
H           1.7299256    -2.2795617    -2.9132937
N           2.6227940    -2.0837391    -1.0240454
H           3.2458153    -2.7890315    -1.3974983
C           4.7505519     0.8205896     1.1863951
H           5.2973382     1.5586980     1.7658935
C           3.3761119     0.9557388     0.9805771
H           2.8439528     1.8023011     1.4073529
C           2.6655614     0.0085689     0.2452092
H           1.5921339     0.1120153     0.1183487
C           3.3310224    -1.0900505    -0.3270632
C           4.7135477    -1.2240003    -0.1133961
H           5.2412613    -2.0723364    -0.5458044
C           5.4108084    -0.2809547     0.6385083
H           6.4808370    -0.4045391     0.7858139
C          -2.4921554    -2.2656396    -0.7283689
H          -3.5489524    -2.3636779    -0.5051649
N          -2.1777790    -1.7058751    -1.9355145
H          -2.9091298    -1.4107760    -2.5722448
C          -0.8753115    -1.4925661    -2.4179501
C           0.1748095    -1.9166545    -1.5008366
C          -0.1432704    -2.4784332    -0.2954795
H           0.6697739    -2.7867794     0.3563887
C          -1.4979523    -2.6629185     0.1143298
H          -1.7384579    -3.1069973     1.0728384
O          -0.6983600    -0.9899689    -3.5283139
27
396_C12H12N2O_0-3-11-9 (60,) energy =    -649.2307530
C           1.2964121    -1.2107455    -1.3463689
H           1.1873872    -0.1261077    -1.4595306
H           1.7679305    -1.5503107    -2.2820297
N           2.1249472    -1.4771265    -0.1661694
H           2.3857744    -2.4597318    -0.1474219
C           5.5078073     0.9305806     0.6510389
H           6.3728984     1.5470699     0.8775784
C           4.2437113     1.5086701     0.5065226
H           4.1199508     2.5816290     0.6299925
C           3.1286995     0.7225888     0.2272274
H           2.1459633     1.1799857     0.1552969
C           3.2612109    -0.6663394     0.0562881
C           4.5333487    -1.2409576     0.2029373
H           4.6525078    -2.3153399     0.0743741
C           5.6417116    -0.4503182     0.5058754
H           6.6164206    -0.9190029     0.6156610
C          -2.6322483    -2.9695293    -1.1806997
H          -3.6292191    -3.3914182    -1.2463544
N          -2.1062102    -2.4799797    -2.3433740
H          -2.6398531    -2.5136928    -3.2044376
C          -0.8402338    -1.8843686    -2.4784267
C          -0.0726081    -1.8384080    -1.2391242
C          -0.6036700    -2.3286368    -0.0770648
H          -0.0075504    -2.2643846     0.8292226
C          -1.9067352    -2.9084470    -0.0291237
H          -2.3163550    -3.2923101     0.8974796
O          -0.4705216    -1.4573692    -3.5721941
27
396_C12H12N2O_0-3-11-9 (75,) energy =    -649.2293948
C           1.3174480    -1.2334749    -1.2767394
H           1.2253490    -0.1561549    -1.4628065
H           1.8469565    -1.6329994    -2.1561760
N           2.0653678    -1.4207512    -0.0246909
H           2.3051922    -2.4063642     0.0645473
C           5.5368775     0.9317417     0.5664747
H           6.4226450     1.5375395     0.7354909
C           4.2651240     1.5093604     0.6238670
H           4.1584553     2.5676414     0.8481591
C           3.1264220     0.7328337     0.4242114
H           2.1365286     1.1731488     0.5077232
C           3.2411292    -0.6342727     0.1262741
C           4.5186833    -1.2082706     0.0713483
H           4.6196495    -2.2684612    -0.1534105
C           5.6563190    -0.4319164     0.2987875
H           6.6384133    -0.8958071     0.2549289
C          -2.6256695    -2.9666990    -1.2422109
H          -3.6197400    -3.3888680    -1.3416357
N          -2.0252140    -2.5571532    -2.3998094
H          -2.5048469    -2.6467593    -3.2881929
C          -0.7487311    -1.9760890    -2.4955750
C          -0.0591015    -1.8492510    -1.2164868
C          -0.6648492    -2.2593600    -0.0597797
H          -0.1256721    -2.1346646     0.8753481
C          -1.9722206    -2.8314763    -0.0544155
H          -2.4410187    -3.1515360     0.8683954
O          -0.3094337    -1.6253369    -3.5906599
27
396_C12H12N2O_0-3-11-9 (90,) energy =    -649.2276560
C           1.3225103    -1.2220272    -1.2199201
H           1.2369219    -0.1585063    -1.4789114
H           1.9057688    -1.6722185    -2.0391286
N           1.9914733    -1.3178143     0.0881272
H           2.1946992    -2.3015979     0.2620855
C           5.5716623     0.9165800     0.4981010
H           6.4848858     1.4926723     0.6192266
C           4.3303577     1.5006018     0.7644145
H           4.2763455     2.5323136     1.1022867
C           3.1589779     0.7578400     0.6261399
H           2.1917249     1.1916594     0.8638532
C           3.2097326    -0.5717803     0.1863601
C           4.4570182    -1.1529181    -0.0772716
H           4.5052166    -2.1877473    -0.4107543
C           5.6309679    -0.4148872     0.0850176
H           6.5916075    -0.8808074    -0.1190296
C          -2.6038680    -2.9919653    -1.3003325
H          -3.5866561    -3.4324377    -1.4285212
N          -1.9327183    -2.6691815    -2.4464879
H          -2.3532449    -2.8354412    -3.3535617
C          -0.6563317    -2.0828636    -2.5073772
C          -0.0512685    -1.8457353    -1.2012197
C          -0.7281857    -2.1688840    -0.0562572
H          -0.2516175    -1.9627119     0.8982112
C          -2.0293216    -2.7542349    -0.0881625
H          -2.5545220    -3.0049136     0.8256959
O          -0.1503308    -1.8165668    -3.5973666
27
396_C12H12N2O_0-3-11-9 (105,) energy =    -649.2259860
C           1.3437970    -1.2486621    -1.1976218
H           1.2810080    -0.2073172    -1.5411573
H           1.9594771    -1.7647890    -1.9517361
N           1.9429285    -1.2422066     0.1467967
H           2.1093853    -2.2123433     0.4148821
C           5.5881451     0.9085880     0.4723974
H           6.5173306     1.4634868     0.5700839
C           4.3911753     1.4559236     0.9392813
H           4.3871275     2.4368296     1.4075277
C           3.1999855     0.7383616     0.8249000
H           2.2645571     1.1398956     1.2035522
C           3.1885676    -0.5241227     0.2221144
C           4.3929519    -1.0701438    -0.2413466
H           4.3919762    -2.0557568    -0.7022935
C           5.5869964    -0.3589132    -0.1131804
H           6.5156605    -0.7943483    -0.4730522
C          -2.5909153    -2.9984391    -1.3291997
H          -3.5699194    -3.4437737    -1.4691305
N          -1.8515324    -2.7969590    -2.4610003
H          -2.2213771    -3.0519981    -3.3695195
C          -0.5669028    -2.2271785    -2.5067814
C          -0.0351181    -1.8617451    -1.1982036
C          -0.7800880    -2.0642546    -0.0677121
H          -0.3558876    -1.7657246     0.8869852
C          -2.0837040    -2.6427989    -0.1158584
H          -2.6630598    -2.7969125     0.7866047
O           0.0033149    -2.0772506    -3.5873055
27
396_C12H12N2O_0-3-11-9 (120,) energy =    -649.2277795
C           1.9917990    -2.8494531    -1.0417463
H           2.4614819    -2.5321904    -1.9791585
H           1.9959595    -3.9455950    -1.0937477
N           2.8469303    -2.4413738     0.0715867
H           2.4439994    -2.7272043     0.9595910
C           4.3698658     1.5069089     0.2629340
H           4.7684958     2.5162403     0.3087699
C           3.5739511     1.0127398     1.2965652
H           3.3426969     1.6383938     2.1550554
C           3.0482401    -0.2776463     1.2287048
H           2.4236923    -0.6488601     2.0397139
C           3.3439286    -1.1190971     0.1432364
C           4.1523147    -0.6159616    -0.8903232
H           4.4029715    -1.2576961    -1.7301281
C           4.6497653     0.6836160    -0.8309574
H           5.2754485     1.0505797    -1.6406595
C          -2.1596210    -1.6729325    -1.2194000
H          -3.2104002    -1.4448609    -1.3605060
N          -1.5857120    -2.4874387    -2.1549287
H          -2.1313518    -2.8461572    -2.9302373
C          -0.2426598    -2.8986680    -2.1611311
C           0.5476663    -2.3847273    -1.0449590
C          -0.0344508    -1.5708289    -0.1127626
H           0.5649413    -1.1798831     0.7029120
C          -1.4109157    -1.1976361    -0.1861073
H          -1.8546389    -0.5480679     0.5586850
O           0.1761137    -3.6319494    -3.0568756
27
396_C12H12N2O_0-3-11-9 (135,) energy =    -649.2302846
C           1.9916835    -2.9182354    -0.9798788
H           2.4961286    -2.7035468    -1.9280178
H           1.9651244    -4.0136434    -0.9325714
N           2.8157178    -2.4386080     0.1233940
H           2.4445883    -2.7322034     1.0211427
C           4.3275621     1.5082177     0.3192684
H           4.7257090     2.5171096     0.3743558
C           3.7459553     0.9122459     1.4393446
H           3.6826812     1.4578543     2.3776180
C           3.2237281    -0.3775924     1.3643223
H           2.7653782    -0.8285964     2.2432938
C           3.2989378    -1.1189693     0.1706015
C           3.8876958    -0.5130023    -0.9533211
H           3.9669113    -1.0638522    -1.8855120
C           4.3891103     0.7844556    -0.8737319
H           4.8420060     1.2299599    -1.7559930
C          -2.1077366    -1.6168332    -1.3450606
H          -3.1471995    -1.3652437    -1.5248420
N          -1.5595072    -2.5530031    -2.1764299
H          -2.1126158    -2.9737063    -2.9144016
C          -0.2337118    -3.0136007    -2.1200884
C           0.5646107    -2.4094634    -1.0573686
C           0.0095831    -1.4738060    -0.2278392
H           0.6189189    -1.0186462     0.5472032
C          -1.3499570    -1.0581559    -0.3609779
H          -1.7740323    -0.3124061     0.3004917
O           0.1644911    -3.8575149    -2.9233514
27
396_C12H12N2O_0-3-11-9 (150,) energy =    -649.2318171
C           1.9991641    -2.9692243    -0.8754346
H           2.5418490    -2.8542048    -1.8202644
H           1.9424642    -4.0552644    -0.7331153
N           2.7887132    -2.4184100     0.2122430
H           2.4770461    -2.7280001     1.1250046
C           4.3209690     1.5181847     0.3131650
H           4.7257504     2.5252970     0.3466697
C           3.9734190     0.8514700     1.4898831
H           4.1040751     1.3389181     2.4529415
C           3.4466000    -0.4365936     1.4468004
H           3.1781225    -0.9440829     2.3720482
C           3.2703809    -1.1047631     0.2193641
C           3.6148511    -0.4252818    -0.9635016
H           3.4830506    -0.9066872    -1.9269473
C           4.1335903     0.8670950    -0.9074646
H           4.3945055     1.3692317    -1.8358649
C          -2.0396265    -1.5815370    -1.5019824
H          -3.0607607    -1.3089432    -1.7449958
N          -1.4711687    -2.5507918    -2.2802692
H          -1.9946576    -2.9774678    -3.0362029
C          -0.1637520    -3.0443884    -2.1375656
C           0.5903864    -2.4314042    -1.0492567
C           0.0158968    -1.4628198    -0.2728881
H           0.5949069    -1.0076126     0.5255233
C          -1.3230558    -1.0175688    -0.4902014
H          -1.7637058    -0.2459622     0.1294489
O           0.2550857    -3.9213028    -2.8938231
27
396_C12H12N2O_0-3-11-9 (165,) energy =    -649.2326090
C           1.9236588    -2.9564982    -0.7993196
H           2.5040752    -2.8672081    -1.7252239
H           1.8648610    -4.0374380    -0.6232200
N           2.6630528    -2.3641931     0.2954242
H           2.4007098    -2.6941650     1.2144970
C           4.3830568     1.4899371     0.3173214
H           4.8379087     2.4758907     0.3311048
C           4.1999105     0.7732391     1.5028639
H           4.5132828     1.2000665     2.4525166
C           3.6159385    -0.4891476     1.4874094
H           3.4866070    -1.0396080     2.4177758
C           3.2000029    -1.0783421     0.2760752
C           3.3764377    -0.3482889    -0.9141996
H           3.0510959    -0.7620800    -1.8627054
C           3.9655187     0.9153752    -0.8835288
H           4.0923726     1.4572622    -1.8176216
C          -2.0906963    -1.5972031    -1.6155352
H          -3.1022971    -1.3328359    -1.9034027
N          -1.4931785    -2.5854339    -2.3467370
H          -1.9879620    -3.0328451    -3.1099943
C          -0.1915012    -3.0732430    -2.1425279
C           0.5203162    -2.4304037    -1.0437837
C          -0.0829623    -1.4435834    -0.3140686
H           0.4673299    -0.9717739     0.4952573
C          -1.4128860    -1.0060143    -0.5923974
H          -1.8772818    -0.2198361    -0.0095187
O           0.2554656    -3.9696192    -2.8587749
27
396_C12H12N2O_0-3-11-9 (180,) energy =    -649.2327083
C           1.8746193    -2.9151814    -0.7264173
H           2.4894755    -2.8264379    -1.6316053
H           1.8404778    -3.9925437    -0.5239086
N           2.5327636    -2.2646112     0.3815721
H           2.4505746    -2.6982393     1.2881459
C           4.5051232     1.4586717     0.3174953
H           5.0205705     2.4143680     0.3080794
C           4.4244603     0.7040199     1.4914307
H           4.8814532     1.0703400     2.4075548
C           3.7663583    -0.5206302     1.5066789
H           3.7207514    -1.1019769     2.4260220
C           3.1637721    -1.0312256     0.3379198
C           3.2377973    -0.2631033    -0.8401467
H           2.7658493    -0.6151253    -1.7512677
C           3.9068295     0.9607249    -0.8400439
H           3.9514940     1.5329884    -1.7635737
C          -2.1350861    -1.6830731    -1.7374695
H          -3.1393285    -1.4490951    -2.0734555
N          -1.4775905    -2.6590329    -2.4330001
H          -1.9251229    -3.1263614    -3.2132874
C          -0.1743170    -3.1106045    -2.1640278
C           0.4675166    -2.4382962    -1.0413730
C          -0.1948349    -1.4648453    -0.3464805
H           0.3087828    -0.9795993     0.4851764
C          -1.5218977    -1.0662997    -0.6887000
H          -2.0348134    -0.2899634    -0.1339009
O           0.3286009    -4.0022366    -2.8487017
