27
396_C12H12N2O_3-0-21-20 (-165,) energy =    -649.2323391
C           1.0840571    -0.8762764    -1.1661829
H           0.7819711     0.1437090    -0.8946607
H           1.4577114    -0.8064279    -2.2004614
N           2.0884466    -1.3313618    -0.2190302
H           2.2712882    -2.3257325    -0.2984811
C           5.6214867     0.8301605     0.6181660
H           6.5300289     1.3780719     0.8500038
C           4.5647934     1.4535513    -0.0430337
H           4.6471781     2.4973513    -0.3359414
C           3.3946772     0.7571807    -0.3521420
H           2.5990179     1.2684158    -0.8827755
C           3.2562633    -0.5931884     0.0127596
C           4.3296349    -1.2182227     0.6781227
H           4.2359934    -2.2630171     0.9688020
C           5.4923894    -0.5161254     0.9731633
H           6.3044676    -1.0254889     1.4861574
C          -2.4855632    -3.2873934    -1.2520005
H          -3.4084653    -3.8447059    -1.3694366
N          -2.1784648    -2.4081906    -2.2518973
H          -2.8010060    -2.2906023    -3.0431234
C          -1.0436649    -1.5800486    -2.2905832
C          -0.1450078    -1.7516480    -1.1529203
C          -0.4623827    -2.6275058    -0.1497009
H           0.2044317    -2.7094636     0.7044989
C          -1.6482186    -3.4205578    -0.1857782
H          -1.8849991    -4.1109916     0.6146468
O          -0.8799931    -0.7986028    -3.2266714
27
396_C12H12N2O_3-0-21-20 (-150,) energy =    -649.2321818
C           1.0104263    -0.7679257    -1.0892242
H           0.7051177     0.2115259    -0.6964447
H           1.3444951    -0.5909784    -2.1225027
N           2.0576822    -1.3020889    -0.2286562
H           2.2161442    -2.2916728    -0.3822521
C           5.6463571     0.7719202     0.5853630
H           6.5698706     1.2972569     0.8102040
C           4.5640522     1.4464662     0.0231659
H           4.6410660     2.5081195    -0.1984605
C           3.3743819     0.7798457    -0.2765139
H           2.5573860     1.3307099    -0.7295220
C           3.2425214    -0.5926540    -0.0021103
C           4.3418935    -1.2695131     0.5630006
H           4.2540083    -2.3320782     0.7821041
C           5.5233870    -0.5958420     0.8494099
H           6.3555257    -1.1446025     1.2836223
C          -2.4448002    -3.3389125    -1.2849561
H          -3.3284190    -3.9503597    -1.4320879
N          -2.0746155    -2.5497136    -2.3361557
H          -2.6140286    -2.5501921    -3.1943340
C          -0.9731779    -1.6746630    -2.3568861
C          -0.1934270    -1.6797503    -1.1220797
C          -0.5697823    -2.4750019    -0.0718618
H           0.0271520    -2.4519245     0.8364542
C          -1.7133651    -3.3247770    -0.1353047
H          -1.9990033    -3.9455957     0.7051873
O          -0.7480636    -0.9953919    -3.3573493
27
396_C12H12N2O_3-0-21-20 (-135,) energy =    -649.2315469
C           0.9497487    -0.6827108    -1.0082302
H           0.6418897     0.2405959    -0.4992064
H           1.2452448    -0.3993815    -2.0281975
N           2.0390102    -1.2829256    -0.2425554
H           2.1820130    -2.2594957    -0.4730490
C           5.6638464     0.7319136     0.5555790
H           6.5973605     1.2412534     0.7759209
C           4.5541214     1.4451124     0.1056795
H           4.6194069     2.5217127    -0.0317945
C           3.3513534     0.7995024    -0.1874018
H           2.5117618     1.3813149    -0.5518667
C           3.2339508    -0.5917225    -0.0201177
C           4.3611962    -1.3073867     0.4313540
H           4.2852631    -2.3847873     0.5660368
C           5.5549795    -0.6534909     0.7124223
H           6.4084803    -1.2319608     1.0575189
C          -2.4033303    -3.3783041    -1.3116653
H          -3.2497759    -4.0342733    -1.4840633
N          -1.9438692    -2.6877692    -2.3953535
H          -2.3865811    -2.7984268    -3.3004672
C          -0.8666358    -1.7801376    -2.3974301
C          -0.2292613    -1.6248238    -1.0924634
C          -0.6923717    -2.3275365    -0.0104040
H          -0.1886029    -2.1995502     0.9448396
C          -1.7990292    -3.2211782    -0.0998796
H          -2.1547367    -3.7651750     0.7666465
O          -0.5527195    -1.2102475    -3.4408953
27
396_C12H12N2O_3-0-21-20 (-120,) energy =    -649.2309726
C           0.9009058    -0.6235402    -0.9032821
H           0.5931851     0.2303173    -0.2858131
H           1.1556975    -0.2346734    -1.8985315
N           2.0337217    -1.2738256    -0.2438552
H           2.1648752    -2.2308051    -0.5501747
C           5.6861501     0.7122803     0.4940218
H           6.6274068     1.2139992     0.6983777
C           4.5492988     1.4446797     0.1568033
H           4.6005977     2.5288998     0.0924660
C           3.3359972     0.8094323    -0.1146394
H           2.4734478     1.4067836    -0.3895332
C           3.2362492    -0.5913370    -0.0402907
C           4.3907862    -1.3261834     0.2975040
H           4.3286904    -2.4110511     0.3593125
C           5.5941754    -0.6818186     0.5585931
H           6.4689190    -1.2746139     0.8148005
C          -2.3674625    -3.4037006    -1.3304649
H          -3.1812929    -4.0919601    -1.5319438
N          -1.7972467    -2.8085588    -2.4173191
H          -2.1315122    -3.0174437    -3.3512149
C          -0.7311086    -1.8863817    -2.3889972
C          -0.2547786    -1.5870369    -1.0411004
C          -0.8293935    -2.1953411     0.0450134
H          -0.4405037    -1.9669471     1.0349067
C          -1.9064210    -3.1196482    -0.0790225
H          -2.3510305    -3.5877795     0.7906850
O          -0.3008909    -1.4236222    -3.4435538
27
396_C12H12N2O_3-0-21-20 (-105,) energy =    -649.2307806
C           0.8640205    -0.6016271    -0.8058770
H           0.5621760     0.1803525    -0.0984222
H           1.0791377    -0.1188406    -1.7691446
N           2.0362051    -1.2845114    -0.2540077
H           2.1624347    -2.2125848    -0.6409131
C           5.6988749     0.7011087     0.4301969
H           6.6434611     1.2021621     0.6204171
C           4.5329577     1.4368557     0.2252560
H           4.5647731     2.5234315     0.2516837
C           3.3146428     0.8031637    -0.0264985
H           2.4273001     1.4037757    -0.1953332
C           3.2403171    -0.6006097    -0.0673592
C           4.4239302    -1.3385537     0.1366870
H           4.3816735    -2.4257040     0.1074935
C           5.6313760    -0.6950201     0.3803871
H           6.5287552    -1.2899881     0.5319758
C          -2.3658762    -3.4013835    -1.3623477
H          -3.1599035    -4.1026760    -1.5954967
N          -1.6561763    -2.9195032    -2.4227352
H          -1.8725637    -3.2220746    -3.3657353
C          -0.5800979    -2.0109421    -2.3497127
C          -0.2766469    -1.5730361    -0.9900165
C          -0.9935340    -2.0658210     0.0692598
H          -0.7342895    -1.7351112     1.0727993
C          -2.0598529    -2.9960104    -0.0967389
H          -2.6171640    -3.3733640     0.7518615
O          -0.0028817    -1.6685734    -3.3795470
27
396_C12H12N2O_3-0-21-20 (-90,) energy =    -649.2312123
C           0.8475525    -0.6137089    -0.7446234
H           0.5716435     0.1016377     0.0382879
H           1.0051851    -0.0509993    -1.6766484
N           2.0600981    -1.3135896    -0.3154828
H           2.2012565    -2.1733894    -0.8344802
C           5.6950743     0.7128691     0.4076253
H           6.6335157     1.2217922     0.6072594
C           4.4991676     1.4259397     0.3468883
H           4.5004095     2.5030027     0.4965206
C           3.2881383     0.7823294     0.0846197
H           2.3768369     1.3682644     0.0307391
C           3.2517571    -0.6093584    -0.1137460
C           4.4656958    -1.3235038    -0.0549130
H           4.4534579    -2.4010584    -0.2068072
C           5.6652588    -0.6701082     0.2008398
H           6.5862688    -1.2468388     0.2381361
C          -2.3991822    -3.3757797    -1.3747094
H          -3.1906184    -4.0726647    -1.6286569
N          -1.5431032    -3.0408415    -2.3832078
H          -1.6537908    -3.4441262    -3.3066718
C          -0.4414538    -2.1707203    -2.2680202
C          -0.2896618    -1.5851742    -0.9397314
C          -1.1540843    -1.9276540     0.0662442
H          -1.0136233    -1.4873517     1.0512046
C          -2.2316323    -2.8392519    -0.1325481
H          -2.9060184    -3.0994548     0.6740218
O           0.2882464    -1.9748479    -3.2386719
27
396_C12H12N2O_3-0-21-20 (-75,) energy =    -649.2325864
C           0.8514550    -0.6256651    -0.7139336
H           0.6152845     0.0329215     0.1281913
H           0.9358334     0.0017884    -1.6163061
N           2.0998860    -1.3274292    -0.4179401
H           2.2494947    -2.0794964    -1.0834967
C           5.6974912     0.7173031     0.4402412
H           6.6278306     1.2274813     0.6721226
C           4.4788693     1.3878895     0.5257002
H           4.4536856     2.4335425     0.8232671
C           3.2776745     0.7429229     0.2238042
H           2.3487254     1.2995849     0.2871811
C           3.2739404    -0.6086443    -0.1644705
C           4.5112032    -1.2789211    -0.2525734
H           4.5242866    -2.3250304    -0.5517457
C           5.7003967    -0.6242563     0.0444009
H           6.6391447    -1.1672245    -0.0346893
C          -2.4108449    -3.3614600    -1.3655915
H          -3.1995226    -4.0574917    -1.6295566
N          -1.4209019    -3.1910986    -2.2910860
H          -1.4380427    -3.7073890    -3.1633820
C          -0.3043135    -2.3516080    -2.1419769
C          -0.2826945    -1.6043652    -0.8903935
C          -1.2797856    -1.7795440     0.0310926
H          -1.2446030    -1.2154099     0.9606653
C          -2.3681280    -2.6747040    -0.1891287
H          -3.1486965    -2.8042874     0.5504990
O           0.5586673    -2.3077495    -3.0207479
27
396_C12H12N2O_3-0-21-20 (-60,) energy =    -649.2340111
C           0.8283073    -0.6435500    -0.6432096
H           0.6193004    -0.0617045     0.2603672
H           0.8535974     0.0675001    -1.4890120
N           2.1018108    -1.3358921    -0.4780993
H           2.2263127    -2.0160861    -1.2226834
C           5.6906084     0.7021460     0.4275767
H           6.6201118     1.2096323     0.6686705
C           4.4636968     1.3293755     0.6353455
H           4.4308938     2.3385595     1.0393208
C           3.2631808     0.6879280     0.3232679
H           2.3272813     1.2121198     0.4857399
C           3.2681750    -0.6177734    -0.2002627
C           4.5144002    -1.2438828    -0.4111144
H           4.5345533    -2.2536990    -0.8155580
C           5.7021995    -0.5924645    -0.1024067
H           6.6472252    -1.1008726    -0.2781289
C          -2.4211843    -3.3820919    -1.3699770
H          -3.1959362    -4.0885718    -1.6464778
N          -1.3244961    -3.3404345    -2.1833325
H          -1.2588021    -3.9504006    -2.9904863
C          -0.2111274    -2.5063332    -2.0046103
C          -0.3019213    -1.6240602    -0.8480669
C          -1.4030164    -1.6756382    -0.0355963
H          -1.4549882    -1.0136122     0.8261705
C          -2.4906033    -2.5644735    -0.2822538
H          -3.3543140    -2.5911386     0.3707488
O           0.7397226    -2.5734467    -2.7893521
27
396_C12H12N2O_3-0-21-20 (-45,) energy =    -649.2340172
C           0.8201921    -0.6785963    -0.5399202
H           0.6298540    -0.2147172     0.4345887
H           0.7987655     0.1408210    -1.2851303
N           2.1131834    -1.3430341    -0.5118484
H           2.2034750    -1.9928818    -1.2882090
C           5.6906660     0.7165510     0.3741188
H           6.6183596     1.2307370     0.6079330
C           4.4605452     1.2976555     0.6754661
H           4.4231009     2.2772162     1.1465559
C           3.2619735     0.6472953     0.3743399
H           2.3222392     1.1346229     0.6125828
C           3.2728235    -0.6218564    -0.2339488
C           4.5227883    -1.2014422    -0.5390768
H           4.5474190    -2.1821700    -1.0092365
C           5.7075670    -0.5408465    -0.2396362
H           6.6552251    -1.0126361    -0.4884524
C          -2.4455534    -3.3693323    -1.4185980
H          -3.2156298    -4.0730653    -1.7142780
N          -1.2716126    -3.4320390    -2.1123769
H          -1.1494719    -4.1086537    -2.8575475
C          -0.1504419    -2.6162943    -1.9012590
C          -0.3126620    -1.6406423    -0.8297969
C          -1.4914266    -1.5947656    -0.1314946
H          -1.5955925    -0.8691432     0.6725954
C          -2.5892948    -2.4569382    -0.4170897
H          -3.5127678    -2.3971585     0.1455966
O           0.8524284    -2.7767493    -2.6059469
27
396_C12H12N2O_3-0-21-20 (-30,) energy =    -649.2327133
C           0.8389128    -0.7434844    -0.4012968
H           0.6648824    -0.4183453     0.6327530
H           0.7741256     0.1744482    -1.0204618
N           2.1477155    -1.3559764    -0.5025905
H           2.2098276    -2.0140527    -1.2744485
C           5.7014007     0.7596041     0.3255565
H           6.6240977     1.2901433     0.5419445
C           4.4706151     1.2862363     0.7121500
H           4.4275481     2.2394571     1.2341559
C           3.2784366     0.6140334     0.4347042
H           2.3371121     1.0566880     0.7437050
C           3.2969139    -0.6232675    -0.2376800
C           4.5480298    -1.1483651    -0.6281361
H           4.5785229    -2.1034062    -1.1480667
C           5.7252636    -0.4658991    -0.3500677
H           6.6735260    -0.8952641    -0.6648548
C          -2.4676220    -3.3263247    -1.4759027
H          -3.2449840    -4.0096282    -1.7990552
N          -1.2382287    -3.4967942    -2.0413551
H          -1.0850890    -4.2257882    -2.7292745
C          -0.0953010    -2.7242557    -1.7840890
C          -0.2970231    -1.6726354    -0.7931513
C          -1.5346611    -1.5225932    -0.2193382
H          -1.6699767    -0.7442010     0.5292989
C          -2.6517501    -2.3373288    -0.5570339
H          -3.6183370    -2.1879767    -0.0919659
O           0.9448609    -2.9860856    -2.4006831
27
396_C12H12N2O_3-0-21-20 (-15,) energy =    -649.2310446
C           0.7592887    -0.8762061    -0.2805547
H           0.5988931    -0.6950059     0.7932673
H           0.6550439     0.1153481    -0.7647480
N           2.0802521    -1.4186936    -0.4948696
H           2.1283537    -2.1227118    -1.2249020
C           5.5977131     0.7745477     0.2571938
H           6.5114566     1.3284647     0.4517910
C           4.3699900     1.2416672     0.7222434
H           4.3203711     2.1705593     1.2859620
C           3.1891501     0.5387147     0.4750166
H           2.2498409     0.9301145     0.8521869
C           3.2164904    -0.6693695    -0.2500446
C           4.4649519    -1.1354250    -0.7186179
H           4.5025724    -2.0666558    -1.2796261
C           5.6300827    -0.4230681    -0.4668929
H           6.5762342    -0.8063124    -0.8419664
C          -2.5790821    -3.3166402    -1.5881704
H          -3.3652120    -3.9689407    -1.9516285
N          -1.3144731    -3.5959244    -2.0128596
H          -1.1430538    -4.3713430    -2.6433949
C          -0.1498598    -2.8838184    -1.6833471
C          -0.3745924    -1.7643247    -0.7749888
C          -1.6524942    -1.5027086    -0.3449944
H          -1.8074580    -0.6716871     0.3412201
C          -2.7843064    -2.2629407    -0.7487035
H          -3.7790709    -2.0233152    -0.3939979
O           0.9196308    -3.2534968    -2.1847848
27
396_C12H12N2O_3-0-21-20 (0,) energy =    -649.2300373
C           0.7833086    -0.8604237    -0.2731222
H           0.7314540    -0.8251680     0.8304714
H           0.5656378     0.1708225    -0.6063530
N           2.0958009    -1.2615936    -0.7020570
H           2.1465315    -2.0912420    -1.2822789
C           5.6434446     0.7520769     0.3253981
H           6.5646779     1.2652039     0.5852828
C           4.4135815     1.2205445     0.7838723
H           4.3701497     2.1095731     1.4091585
C           3.2233419     0.5690125     0.4559733
H           2.2826010     0.9608416     0.8293119
C           3.2416332    -0.5866374    -0.3527893
C           4.4932195    -1.0552624    -0.8140379
H           4.5248846    -1.9451266    -1.4389397
C           5.6669653    -0.3944077    -0.4779287
H           6.6144928    -0.7793043    -0.8480092
C          -2.5678688    -3.2905649    -1.5709661
H          -3.3590056    -3.9396269    -1.9292670
N          -1.2989664    -3.6195502    -1.9426556
H          -1.1278410    -4.4312881    -2.5258200
C          -0.1244878    -2.9289572    -1.6014326
C          -0.3485578    -1.7560076    -0.7631870
C          -1.6333503    -1.4369237    -0.3959738
H          -1.7891450    -0.5588694     0.2290190
C          -2.7709467    -2.1929918    -0.7889082
H          -3.7694927    -1.9100657    -0.4796949
O           0.9507341    -3.3678042    -2.0302615
27
396_C12H12N2O_3-0-21-20 (15,) energy =    -649.2310448
C           0.7565351    -0.8970956    -0.2758865
H           0.8260437    -1.0074715     0.8248576
H           0.4565487     0.1481106    -0.4461343
N           2.0331823    -1.1489510    -0.9020301
H           2.1193968    -2.0720941    -1.3160629
C           5.6009807     0.6965039     0.3686696
H           6.5263936     1.1694362     0.6842158
C           4.3707507     1.1644778     0.8261756
H           4.3311466     2.0116324     1.5072308
C           3.1755614     0.5616916     0.4289302
H           2.2345386     0.9516425     0.8033335
C           3.1893759    -0.5364426    -0.4541755
C           4.4406293    -1.0050197    -0.9126807
H           4.4679252    -1.8516376    -1.5952024
C           5.6206346    -0.3964591    -0.5057675
H           6.5688185    -0.7808109    -0.8745181
C          -2.5769380    -3.3266123    -1.6151550
H          -3.3613658    -3.9779365    -1.9839844
N          -1.2976313    -3.6868045    -1.9173437
H          -1.1127332    -4.5288251    -2.4512325
C          -0.1297573    -3.0065258    -1.5364781
C          -0.3741983    -1.7901195    -0.7686647
C          -1.6691038    -1.4326525    -0.4826029
H          -1.8409265    -0.5175122     0.0817635
C          -2.7984523    -2.1958196    -0.8876297
H          -3.8058665    -1.8865376    -0.6381014
O           0.9600884    -3.4908923    -1.8676354
27
396_C12H12N2O_3-0-21-20 (30,) energy =    -649.2327132
C           0.7637619    -1.0088091    -0.1375052
H           0.8874929    -1.2685254     0.9336589
H           0.4676108     0.0481820    -0.1556421
N           2.0037959    -1.1767360    -0.8671381
H           2.1168873    -2.1195409    -1.2290817
C           5.5832581     0.7282847     0.2938496
H           6.5104917     1.2176579     0.5774241
C           4.3676591     1.1377193     0.8381651
H           4.3416033     1.9536702     1.5568598
C           3.1705791     0.5121369     0.4834870
H           2.2428980     0.8515276     0.9326325
C           3.1667553    -0.5462673    -0.4455322
C           4.4031053    -0.9564854    -0.9902090
H           4.4162113    -1.7724643    -1.7094890
C           5.5864517    -0.3284555    -0.6238860
H           6.5232668    -0.6678951    -1.0595554
C          -2.5834183    -3.2749997    -1.6931325
H          -3.3671380    -3.9000584    -2.1062985
N          -1.3056418    -3.7273686    -1.8441769
H          -1.1234090    -4.6065585    -2.3152792
C          -0.1434586    -3.0926590    -1.3796360
C          -0.3869416    -1.8232199    -0.7030658
C          -1.6762185    -1.3713543    -0.5724134
H          -1.8450009    -0.4162956    -0.0784115
C          -2.8050511    -2.0929872    -1.0527432
H          -3.8113008    -1.7129507    -0.9265692
O           0.9468699    -3.6454765    -1.5699719
27
396_C12H12N2O_3-0-21-20 (45,) energy =    -649.2340174
C           0.7854386    -1.1014648    -0.0262296
H           0.9631435    -1.5080263     0.9887843
H           0.4947794    -0.0532221     0.1075011
N           1.9842156    -1.1677205    -0.8463688
H           2.1269055    -2.1084458    -1.2039259
C           5.5747565     0.7722516     0.2370648
H           6.5033762     1.2716790     0.4976739
C           4.3792717     1.1230195     0.8610748
H           4.3707469     1.9019910     1.6200218
C           3.1809845     0.4833357     0.5367553
H           2.2712791     0.7744415     1.0515191
C           3.1544468    -0.5281799    -0.4415916
C           4.3702851    -0.8796657    -1.0657506
H           4.3657713    -1.6596394    -1.8241002
C           5.5563758    -0.2394886    -0.7293650
H           6.4773737    -0.5338550    -1.2270135
C          -2.5619483    -3.2239963    -1.7493999
H          -3.3451062    -3.8305226    -2.1904059
N          -1.3074186    -3.7621052    -1.7503429
H          -1.1409643    -4.6796350    -2.1483767
C          -0.1553802    -3.1556581    -1.2287435
C          -0.3808802    -1.8339002    -0.6556651
C          -1.6424906    -1.2978468    -0.6712516
H          -1.7961302    -0.3063922    -0.2501013
C          -2.7647259    -1.9875320    -1.2144771
H          -3.7530609    -1.5446537    -1.2099039
O           0.9226722    -3.7573196    -1.2911202
27
396_C12H12N2O_3-0-21-20 (60,) energy =    -649.2340110
C           0.7997578    -1.1996875     0.0371159
H           1.0262010    -1.7335363     0.9779848
H           0.5144150    -0.1777796     0.3074706
N           1.9564506    -1.1514944    -0.8505290
H           2.1245521    -2.0694508    -1.2525692
C           5.5508224     0.8012893     0.2081867
H           6.4787810     1.3058374     0.4611046
C           4.3766427     1.0812811     0.9044422
H           4.3846274     1.8088885     1.7126837
C           3.1797474     0.4337993     0.5909218
H           2.2882208     0.6672522     1.1634268
C           3.1326662    -0.5125212    -0.4489362
C           4.3264565    -0.7928946    -1.1459524
H           4.3060859    -1.5225879    -1.9527032
C           5.5123733    -0.1464233    -0.8201110
H           6.4166155    -0.3856496    -1.3746789
C          -2.5598051    -3.1927857    -1.7868508
H          -3.3499892    -3.7834907    -2.2368349
N          -1.3528115    -3.8150068    -1.6383720
H          -1.2250751    -4.7725465    -1.9460693
C          -0.2015687    -3.2336201    -1.0870874
C          -0.3788820    -1.8578670    -0.6399732
C          -1.5913959    -1.2410996    -0.7962188
H          -1.7066979    -0.2128455    -0.4600534
C          -2.7126560    -1.9014686    -1.3797169
H          -3.6647079    -1.3980202    -1.4948712
O           0.8470702    -3.8826765    -1.0282518
27
396_C12H12N2O_3-0-21-20 (75,) energy =    -649.2325864
C           1.2873395    -1.0786681    -1.3725859
H           1.0650903    -0.0719780    -1.7627531
H           1.9831105    -1.5588042    -2.0683075
N           1.9136377    -1.0271110    -0.0522693
H           1.2333060    -0.7582028     0.6518448
C           5.6493159     0.8333094     0.6141298
H           6.6127721     1.2987082     0.8005098
C           5.2638565     0.4912549    -0.6806147
H           5.9287922     0.6937346    -1.5169437
C           4.0247773    -0.1018119    -0.9317348
H           3.7512285    -0.3412609    -1.9538197
C           3.1405111    -0.3774109     0.1263763
C           3.5360136    -0.0245750     1.4329150
H           2.8624400    -0.2317610     2.2620022
C           4.7690195     0.5710917     1.6690506
H           5.0451534     0.8336170     2.6874546
C          -2.4228273    -3.2652649    -1.3032473
H          -3.4034205    -3.7259291    -1.2547813
N          -2.3165668    -2.0146729    -0.7644844
H          -3.1203479    -1.5681736    -0.3374967
C          -1.1388523    -1.2507485    -0.7101650
C           0.0161043    -1.8895735    -1.3292944
C          -0.0997074    -3.1423950    -1.8688368
H           0.7738293    -3.6044506    -2.3238745
C          -1.3309371    -3.8622391    -1.8590467
H          -1.4064191    -4.8539690    -2.2878926
O          -1.1406135    -0.1494900    -0.1567150
27
396_C12H12N2O_3-0-21-20 (90,) energy =    -649.2312122
C           1.2747590    -1.0575065    -1.3835810
H           1.0498748    -0.0209962    -1.6755413
H           1.9354747    -1.4862630    -2.1454318
N           1.9627766    -1.1259070    -0.0927855
H           1.3171541    -1.0250404     0.6828084
C           5.6175995     0.8678318     0.6217053
H           6.5625396     1.3664000     0.8167787
C           5.1778219     0.6647321    -0.6850754
H           5.7810810     1.0100472    -1.5213104
C           3.9616288     0.0305751    -0.9465128
H           3.6419091    -0.0999776    -1.9748240
C           3.1575284    -0.4278813     0.1121350
C           3.6067315    -0.2154282     1.4313100
H           2.9951622    -0.5643053     2.2611386
C           4.8163328     0.4226945     1.6781580
H           5.1360300     0.5746251     2.7062497
C          -2.4270581    -3.2606940    -1.2895079
H          -3.4039668    -3.7298070    -1.2439051
N          -2.3770435    -1.9377206    -0.9587750
H          -3.2175652    -1.4461303    -0.6767438
C          -1.2147136    -1.1425379    -0.9342886
C          -0.0076479    -1.8507905    -1.3484910
C          -0.0680657    -3.1788580    -1.6787766
H           0.8472231    -3.6882618    -1.9728584
C          -1.2877191    -3.9160027    -1.6519865
H          -1.3178608    -4.9659911    -1.9159671
O          -1.2841906     0.0327411    -0.5780233
27
396_C12H12N2O_3-0-21-20 (105,) energy =    -649.2307795
C           1.2500747    -0.9970576    -1.3790523
H           1.0023039     0.0561314    -1.5703915
H           1.8788766    -1.3493526    -2.2058274
N           1.9984598    -1.1717934    -0.1323287
H           1.3941749    -1.2046688     0.6806090
C           5.6297980     0.8430562     0.6304014
H           6.5696843     1.3472747     0.8349486
C           5.1286397     0.7750280    -0.6683762
H           5.6780157     1.2323832    -1.4877612
C           3.9182606     0.1351798    -0.9418150
H           3.5483834     0.1112043    -1.9612160
C           3.1830959    -0.4662197     0.0953404
C           3.6938878    -0.3901056     1.4069971
H           3.1356943    -0.8507242     2.2198762
C           4.8970284     0.2552322     1.6666339
H           5.2654834     0.3001867     2.6886326
C          -2.4109799    -3.2681353    -1.2508799
H          -3.3781848    -3.7570816    -1.2052565
N          -2.4153601    -1.9101847    -1.1228452
H          -3.2862741    -1.4098988    -0.9856046
C          -1.2777726    -1.0770941    -1.1419833
C          -0.0266974    -1.8017223    -1.3473935
C          -0.0323597    -3.1668354    -1.4709712
H           0.9162273    -3.6823422    -1.6055035
C          -1.2329164    -3.9325950    -1.4251596
H          -1.2190943    -5.0108035    -1.5271321
O          -1.4101048     0.1359036    -0.9928436
27
396_C12H12N2O_3-0-21-20 (120,) energy =    -649.2309725
C           1.1982429    -0.9077431    -1.3311726
H           0.9090169     0.1480029    -1.4232661
H           1.8014011    -1.1613313    -2.2124961
N           2.0057875    -1.1705893    -0.1396749
H           1.4425966    -1.2777248     0.6959193
C           5.6688228     0.7913397     0.6104962
H           6.6169763     1.2814687     0.8110586
C           5.1002733     0.8371225    -0.6612165
H           5.6048284     1.3707667    -1.4630553
C           3.8784716     0.2164886    -0.9282607
H           3.4547638     0.2840417    -1.9244014
C           3.2004783    -0.4816570     0.0869097
C           3.7790258    -0.5205081     1.3717828
H           3.2659045    -1.0572460     2.1675443
C           4.9925463     0.1074402     1.6258879
H           5.4139690     0.0623912     2.6271855
C          -2.3925911    -3.2943469    -1.2525638
H          -3.3452368    -3.8126773    -1.2321117
N          -2.4485435    -1.9322607    -1.2988767
H          -3.3427273    -1.4548639    -1.3074600
C          -1.3400052    -1.0615906    -1.3297976
C          -0.0538714    -1.7535274    -1.3186293
C          -0.0076901    -3.1227345    -1.2653372
H           0.9654527    -3.6080146    -1.2381885
C          -1.1841131    -3.9257915    -1.2339330
H          -1.1284724    -5.0068428    -1.1958302
O          -1.5237894     0.1534931    -1.3631514
27
396_C12H12N2O_3-0-21-20 (135,) energy =    -649.2315470
C           1.1404728    -0.8366094    -1.2500629
H           0.8107025     0.2116956    -1.2347354
H           1.7070883    -0.9772977    -2.1803995
N           2.0128401    -1.1787750    -0.1298311
H           1.4959499    -1.3520421     0.7246177
C           5.6990276     0.7557603     0.5804847
H           6.6532297     1.2384861     0.7699533
C           5.0659990     0.8928677    -0.6536241
H           5.5255450     1.4912961    -1.4365221
C           3.8357548     0.2826556    -0.9056472
H           3.3612903     0.4231389    -1.8707453
C           3.2150399    -0.4980138     0.0855551
C           3.8586720    -0.6292766     1.3326445
H           3.3904745    -1.2308672     2.1095474
C           5.0796488    -0.0103588     1.5730922
H           5.5519062    -0.1279059     2.5453776
C          -2.3831490    -3.3232521    -1.2889625
H          -3.3218183    -3.8661891    -1.3134225
N          -2.4607914    -1.9743364    -1.4804667
H          -3.3578554    -1.5286017    -1.6356048
C          -1.3722456    -1.0804078    -1.4954388
C          -0.0817073    -1.7258061    -1.2690996
C          -0.0130996    -3.0804212    -1.0704774
H           0.9613927    -3.5289562    -0.8921207
C          -1.1710659    -3.9112708    -1.0806914
H          -1.0979293    -4.9809417    -0.9264221
O          -1.5708947     0.1177531    -1.6880755
27
396_C12H12N2O_3-0-21-20 (150,) energy =    -649.2321820
C           1.0845439    -0.7825114    -1.1401843
H           0.7181649     0.2479449    -1.0189989
H           1.6069323    -0.8077443    -2.1061229
N           2.0213778    -1.1868645    -0.1004047
H           1.5563049    -1.4142666     0.7713187
C           5.7296134     0.7342181     0.5331560
H           6.6896312     1.2130193     0.7020410
C           5.0233172     0.9555512    -0.6477700
H           5.4306754     1.6165062    -1.4089248
C           3.7850254     0.3509271    -0.8727002
H           3.2533232     0.5586447    -1.7948049
C           3.2307224    -0.5092366     0.0913013
C           3.9483850    -0.7258872     1.2846890
H           3.5322588    -1.3904550     2.0396395
C           5.1764578    -0.1115965     1.4997268
H           5.7065780    -0.2962129     2.4308683
C          -2.3726145    -3.3508359    -1.3477535
H          -3.2962631    -3.9130534    -1.4320516
N          -2.4393539    -2.0264184    -1.6738291
H          -3.3140958    -1.6157133    -1.9797537
C          -1.3636247    -1.1200336    -1.6471642
C          -0.1051906    -1.7117146    -1.2013705
C          -0.0457402    -3.0407940    -0.8741873
H           0.9071475    -3.4533505    -0.5522286
C          -1.1885323    -3.8911572    -0.9440265
H          -1.1241056    -4.9408163    -0.6842399
O          -1.5389308     0.0498452    -1.9843048
27
396_C12H12N2O_3-0-21-20 (165,) energy =    -649.2323388
C           1.0256182    -0.7345417    -1.0116283
H           0.6355979     0.2689242    -0.7772181
H           1.4903961    -0.6440359    -2.0021349
N           2.0293710    -1.1982555    -0.0675816
H           1.6237073    -1.4784919     0.8187434
C           5.7507715     0.7278776     0.4799305
H           6.7143940     1.2068728     0.6261899
C           4.9789992     1.0131086    -0.6449679
H           5.3382138     1.7245697    -1.3844928
C           3.7357055     0.4083486    -0.8400703
H           3.1542609     0.6662917    -1.7183409
C           3.2421093    -0.5160675     0.0967652
C           4.0260291    -0.7971363     1.2333965
H           3.6576630    -1.5123727     1.9666221
C           5.2588364    -0.1828103     1.4200211
H           5.8406452    -0.4186401     2.3076992
C          -2.3622347    -3.3639130    -1.4234454
H          -3.2674620    -3.9411775    -1.5765619
N          -2.3902562    -2.0689664    -1.8588666
H          -3.2188083    -1.6944316    -2.3067917
C          -1.3266923    -1.1547262    -1.7702921
C          -0.1348685    -1.6927848    -1.1210176
C          -0.1094168    -2.9936694    -0.6952232
H           0.8022117    -3.3803419    -0.2475895
C          -1.2360679    -3.8579419    -0.8375309
H          -1.2016109    -4.8846776    -0.4938835
O          -1.4500153    -0.0166852    -2.2212920
27
396_C12H12N2O_3-0-21-20 (180,) energy =    -649.2315643
C           1.1709577    -0.9896355    -1.2484654
H           0.8816388     0.0584004    -1.1081154
H           1.5912343    -1.0373048    -2.2679121
N           2.1238642    -1.3559437    -0.2158327
H           2.3306522    -2.3488499    -0.2152917
C           5.5954280     0.8991210     0.6396677
H           6.4872380     1.4714875     0.8772844
C           4.5651000     1.4662059    -0.1082269
H           4.6514672     2.4901929    -0.4632677
C           3.4166339     0.7381214    -0.4251458
H           2.6419987     1.2066669    -1.0220279
C           3.2734214    -0.5878350     0.0184373
C           4.3202076    -1.1559715     0.7711771
H           4.2226798    -2.1812261     1.1238189
C           5.4617204    -0.4229929     1.0742727
H           6.2532056    -0.8891875     1.6558869
C          -2.5225718    -3.2046723    -1.2245386
H          -3.4843203    -3.6983934    -1.3097988
N          -2.2520211    -2.2433860    -2.1577330
H          -2.9357127    -2.0079948    -2.8680579
C          -1.0760388    -1.4782713    -2.2204190
C          -0.0903767    -1.8152659    -1.1976233
C          -0.3754763    -2.7639539    -0.2537315
H           0.3436161    -2.9584640     0.5370084
C          -1.6053455    -3.4888911    -0.2587255
H          -1.8136913    -4.2429620     0.4905526
O          -0.9444603    -0.6108574    -3.0832622
