26
079_C13H12O_13-14-21-19 (-165,) energy =    -577.8309640
C           0.2991467     1.1549537    -0.5317958
C           0.6218519     2.3540256    -1.3883480
H          -0.1916256     2.5598956    -2.0905522
C          -0.9233285     0.4792937    -0.6305655
H           1.5412208     2.1995008    -1.9647709
H          -1.6563893     0.8300813    -1.3532667
C          -1.2147872    -0.6265387     0.1694128
H           0.7818416     3.2498982    -0.7771881
H          -2.1710447    -1.1320314     0.0677845
C          -0.2773311    -1.0759923     1.1002875
H          -0.4964932    -1.9310540     1.7337802
C           0.9452333    -0.4168989     1.2264550
H           1.6848420    -0.7412210     1.9520949
C           1.2234449     0.6806838     0.4107335
O           2.3963546     1.4044980     0.5745445
C           6.2106462    -0.1844833     0.0015284
H           7.2141887    -0.5735985    -0.1436500
C           6.0115020     1.0171603     0.6871289
H           6.8615366     1.5695993     1.0788457
C           4.7259629     1.5172222     0.8783886
H           4.5520616     2.4483375     1.4086500
C           3.6266042     0.8109497     0.3789705
C           3.8112764    -0.3879909    -0.3155221
H           2.9580272    -0.9285481    -0.7100046
C           5.1069786    -0.8776334    -0.4957201
H           5.2479348    -1.8101045    -1.0361535
26
079_C13H12O_13-14-21-19 (-150,) energy =    -577.8311788
C           0.2286425     1.2033876    -0.5694342
C           0.4519042     2.4167953    -1.4370436
H          -0.4372968     2.6343055    -2.0364782
C          -0.9998249     0.5343666    -0.5330011
H           1.2990676     2.2724136    -2.1173766
H          -1.8115653     0.9012606    -1.1569651
C          -1.2008741    -0.5854610     0.2757036
H           0.6832987     3.3028773    -0.8341558
H          -2.1646598    -1.0866647     0.2795408
C          -0.1602466    -1.0528778     1.0784209
H          -0.3058972    -1.9181533     1.7193217
C           1.0737074    -0.4023636     1.0696299
H           1.8896348    -0.7468934     1.6968767
C           1.2599834     0.7085308     0.2448340
O           2.4398635     1.4350963     0.2536573
C           6.2456219    -0.2684700     0.1881164
H           7.2473346    -0.6878235     0.1682598
C           5.9999488     0.9395734     0.8448649
H           6.8114073     1.4664064     1.3398383
C           4.7144426     1.4778730     0.8773741
H           4.5025431     2.4143779     1.3836360
C           3.6680366     0.8041049     0.2424413
C           3.9016563    -0.4013368    -0.4267365
H           3.0856006    -0.9128884    -0.9258433
C           5.1924749    -0.9315811    -0.4445563
H           5.3732378    -1.8683081    -0.9653029
26
079_C13H12O_13-14-21-19 (-135,) energy =    -577.8311672
C           0.1787247     1.2183587    -0.5904286
C           0.3405460     2.4240938    -1.4816670
H          -0.5977514     2.6566963    -1.9943504
C          -1.0512536     0.5723976    -0.4333641
H           1.1164460     2.2610721    -2.2386158
H          -1.9118374     0.9524933    -0.9791825
C          -1.1949296    -0.5412328     0.3968620
H           0.6456775     3.3078888    -0.9086440
H          -2.1626103    -1.0248449     0.4953740
C          -0.0901892    -1.0236572     1.0969983
H          -0.1877687    -1.8842859     1.7532150
C           1.1503787    -0.3976263     0.9663731
H           2.0138041    -0.7590492     1.5148085
C           1.2766575     0.7075393     0.1230255
O           2.4602987     1.4134966    -0.0101420
C           6.2428670    -0.3088755     0.3165137
H           7.2390352    -0.7349616     0.3934277
C           5.9319454     0.8769594     0.9844874
H           6.6856038     1.3787853     1.5853805
C           4.6518514     1.4245035     0.8922619
H           4.3891490     2.3447934     1.4043221
C           3.6837190     0.7826327     0.1186489
C           3.9842545    -0.4013906    -0.5617391
H           3.2230696    -0.8847160    -1.1657215
C           5.2650312    -0.9431211    -0.4538421
H           5.5003582    -1.8626937    -0.9831098
26
079_C13H12O_13-14-21-19 (-120,) energy =    -577.8309443
C           0.1599454     1.2315964    -0.6070966
C           0.2865435     2.4188778    -1.5280626
H          -0.6841423     2.6805345    -1.9600914
C          -1.0701785     0.6237727    -0.3433253
H           0.9861938     2.2168498    -2.3475608
H          -1.9600878     1.0222293    -0.8253947
C          -1.1792308    -0.4743420     0.5134980
H           0.6740984     3.2974682    -0.9983754
H          -2.1491904    -0.9277999     0.6964713
C          -0.0359847    -0.9791449     1.1293480
H          -0.1036385    -1.8288403     1.8034533
C           1.2085898    -0.3926843     0.8901345
H           2.1007662    -0.7762544     1.3729292
C           1.2978080     0.6985156     0.0248349
O           2.4842707     1.3617813    -0.2361094
C           6.2338786    -0.3376922     0.4207691
H           7.2216267    -0.7605961     0.5803413
C           5.8401014     0.8071075     1.1156361
H           6.5199810     1.2791373     1.8197383
C           4.5701734     1.3515706     0.9153739
H           4.2444008     2.2414625     1.4446547
C           3.7012028     0.7476809     0.0070372
C           4.0849192    -0.3959705    -0.6986264
H           3.3949033    -0.8464040    -1.4053470
C           5.3528018    -0.9359094    -0.4841308
H           5.6555087    -1.8235821    -1.0330836
26
079_C13H12O_13-14-21-19 (-105,) energy =    -577.8307285
C           0.1448064     1.2438282    -0.6171527
C           0.2484017     2.4094469    -1.5679838
H          -0.7421871     2.7128248    -1.9201853
C          -1.0840206     0.6897227    -0.2519858
H           0.8636758     2.1605761    -2.4407451
H          -1.9915349     1.1163134    -0.6734360
C          -1.1711649    -0.3897784     0.6312960
H           0.7231984     3.2750208    -1.0904345
H          -2.1415242    -0.8005000     0.8951332
C          -0.0052660    -0.9304565     1.1678201
H          -0.0544159    -1.7678977     1.8587087
C           1.2405596    -0.3992043     0.8249557
H           2.1502520    -0.8148476     1.2438286
C           1.3063318     0.6759203    -0.0617587
O           2.4928594     1.2768757    -0.4438550
C           6.2217321    -0.3304344     0.4997652
H           7.2041879    -0.7313880     0.7323500
C           5.7206869     0.7565879     1.2185670
H           6.3116118     1.2045630     2.0128481
C           4.4585241     1.2750951     0.9227250
H           4.0520853     2.1222500     1.4663088
C           3.7064921     0.7010162    -0.1018034
C           4.1972585    -0.3848520    -0.8296650
H           3.5939794    -0.8082983    -1.6267811
C           5.4576467    -0.8984238    -0.5229040
H           5.8453237    -1.7409507    -1.0891884
26
079_C13H12O_13-14-21-19 (-90,) energy =    -577.8306568
C           0.1402287     1.2492854    -0.6194103
C           0.2370302     2.3916838    -1.5986565
H          -0.7584215     2.7543905    -1.8723281
C          -1.0869356     0.7677436    -0.1590036
H           0.7577857     2.0902626    -2.5153849
H          -1.9983712     1.2368892    -0.5228811
C          -1.1679568    -0.2917604     0.7489302
H           0.8061255     3.2305206    -1.1802903
H          -2.1373299    -0.6444044     1.0893100
C           0.0029269    -0.8878907     1.2102561
H          -0.0411731    -1.7131940     1.9159360
C           1.2477966    -0.4309840     0.7698459
H           2.1614349    -0.8933557     1.1263955
C           1.3070264     0.6282872    -0.1360318
O           2.4918591     1.1457198    -0.6292275
C           6.2219926    -0.2936335     0.5509635
H           7.2050158    -0.6518552     0.8433084
C           5.5952922     0.7130308     1.2891724
H           6.0899447     1.1411623     2.1568033
C           4.3339678     1.1791327     0.9153906
H           3.8345066     1.9664054     1.4715490
C           3.7059728     0.6290390    -0.2027552
C           4.3218701    -0.3761185    -0.9488676
H           3.8122614    -0.7783079    -1.8189567
C           5.5837645    -0.8348337    -0.5672412
H           6.0691072    -1.6146018    -1.1478807
26
079_C13H12O_13-14-21-19 (-75,) energy =    -577.8307762
C           0.1480015     1.2431381    -0.6123274
C           0.2555695     2.3602547    -1.6193370
H          -0.7273260     2.7960441    -1.8227157
C          -1.0763505     0.8488451    -0.0681139
H           0.6770276     2.0057053    -2.5676308
H          -1.9767759     1.3712330    -0.3835651
C          -1.1675644    -0.1885520     0.8638039
H           0.9193504     3.1571860    -1.2635866
H          -2.1339082    -0.4713672     1.2713529
C          -0.0107404    -0.8539904     1.2622965
H          -0.0634136    -1.6657858     1.9828825
C           1.2299265    -0.4863323     0.7359911
H           2.1322950    -1.0054643     1.0395718
C           1.3003893     0.5555163    -0.1893342
O           2.4816213     0.9702949    -0.7789677
C           6.2318579    -0.2347929     0.5846451
H           7.2203464    -0.5323784     0.9228616
C           5.4764683     0.6684554     1.3370329
H           5.8774027     1.0775483     2.2604735
C           4.2088058     1.0591014     0.9053263
H           3.6135784     1.7675920     1.4731342
C           3.6996365     0.5324198    -0.2838595
C           4.4440781    -0.3692765    -1.0437219
H           4.0244355    -0.7532780    -1.9682529
C           5.7142172    -0.7490936    -0.6055353
H           6.2983188    -1.4486436    -1.1973164
26
079_C13H12O_13-14-21-19 (-60,) energy =    -577.8310216
C           0.1690100     1.2262641    -0.6031973
C           0.3021482     2.3148902    -1.6381392
H          -0.6536360     2.8256251    -1.7897751
C          -1.0525704     0.9267472     0.0057083
H           0.6324521     1.9122208    -2.6032110
H          -1.9295277     1.5048474    -0.2768304
C          -1.1688415    -0.0852491     0.9616729
H           1.0487554     3.0605616    -1.3407913
H          -2.1313149    -0.2926393     1.4205497
C          -0.0425989    -0.8241684     1.3183769
H          -0.1170117    -1.6193616     2.0553042
C           1.1921866    -0.5530778     0.7256235
H           2.0708488    -1.1303608     0.9923179
C           1.2898834     0.4679050    -0.2208333
O           2.4656313     0.7693644    -0.8860816
C           6.2507425    -0.1523660     0.5967111
H           7.2480847    -0.3775956     0.9634568
C           5.3791681     0.6234017     1.3656532
H           5.6989403     1.0073549     2.3306962
C           4.0990350     0.9219401     0.8996577
H           3.4177398     1.5319825     1.4845128
C           3.6915160     0.4273064    -0.3426014
C           4.5527408    -0.3476130    -1.1193939
H           4.2096534    -0.7094340    -2.0835383
C           5.8348514    -0.6323296    -0.6463835
H           6.5072768    -1.2338032    -1.2520982
26
079_C13H12O_13-14-21-19 (-45,) energy =    -577.8311986
C           0.1915261     1.2069873    -0.5955252
C           0.3625285     2.2686229    -1.6529657
H          -0.5527532     2.8581367    -1.7628468
C          -1.0241353     1.0096605     0.0669736
H           0.6047900     1.8280628    -2.6274961
H          -1.8655805     1.6498637    -0.1880968
C          -1.1767349     0.0218606     1.0419417
H           1.1847186     2.9503638    -1.4065416
H          -2.1323288    -0.1046551     1.5427984
C          -0.0969712    -0.7992475     1.3643698
H          -0.2029185    -1.5778515     2.1149170
C           1.1276639    -0.6318506     0.7166186
H           1.9718050    -1.2716696     0.9516397
C           1.2641913     0.3690078    -0.2469557
O           2.4305408     0.5476024    -0.9719390
C           6.2565286    -0.0434135     0.5758016
H           7.2635262    -0.1866043     0.9568862
C           5.2939369     0.5990788     1.3580042
H           5.5517275     0.9631072     2.3490657
C           3.9988807     0.7910546     0.8764858
H           3.2511368     1.2978794     1.4777789
C           3.6679387     0.3229617    -0.3990208
C           4.6217216    -0.3199228    -1.1902035
H           4.3363225    -0.6662277    -2.1785350
C           5.9155399    -0.4974238    -0.6997875
H           6.6568351    -0.9971298    -1.3176136
26
079_C13H12O_13-14-21-19 (-30,) energy =    -577.8311442
C           0.2361244     1.1785641    -0.5771686
C           0.4679233     2.2208175    -1.6426193
H          -0.3936912     2.8902716    -1.7247113
C          -0.9720468     1.0895631     0.1236273
H           0.6377921     1.7600891    -2.6229203
H          -1.7612201     1.8015688    -0.1067257
C          -1.1804620     0.1191427     1.1050515
H           1.3549052     2.8265866    -1.4243955
H          -2.1277584     0.0776912     1.6351843
C          -0.1691434    -0.7962539     1.3973104
H          -0.3213190    -1.5623331     2.1526949
C           1.0430243    -0.7376859     0.7098292
H           1.8358753    -1.4494471     0.9168391
C           1.2378354     0.2477559    -0.2596972
O           2.3939771     0.2970049    -1.0226332
C           6.2520274     0.0995655     0.5489971
H           7.2663676     0.0527884     0.9344432
C           5.2215572     0.6099241     1.3401176
H           5.4321546     0.9682423     2.3444078
C           3.9140498     0.6758119     0.8557677
H           3.1164525     1.0799798     1.4697522
C           3.6413078     0.2167412    -0.4364946
C           4.6651569    -0.2955937    -1.2381561
H           4.4231048    -0.6411065    -2.2383102
C           5.9667605    -0.3488908    -0.7430077
H           6.7598098    -0.7477685    -1.3699326
26
079_C13H12O_13-14-21-19 (-15,) energy =    -577.8309320
C           0.3127419     1.1324824    -0.5327062
C           0.6492994     2.1642176    -1.5804782
H          -0.1351185     2.9244629    -1.6430306
C          -0.8852530     1.1731012     0.1913092
H           0.7623968     1.7059332    -2.5697838
H          -1.5884916     1.9785590    -0.0072348
C          -1.1897618     0.2111512     1.1555021
H           1.5970243     2.6679132    -1.3577658
H          -2.1263660     0.2705994     1.7028211
C          -0.2915808    -0.8261989     1.4096881
H          -0.5222508    -1.5843970     2.1528973
C           0.9055757    -0.8961516     0.6975280
H           1.6152424    -1.7000048     0.8679693
C           1.1974093     0.0798734    -0.2557989
O           2.3431170    -0.0193636    -1.0339615
C           6.2110608     0.2953866     0.4974890
H           7.2275194     0.3745186     0.8718330
C           5.1345874     0.6902811     1.2916683
H           5.3097205     1.0835971     2.2897189
C           3.8225370     0.5926924     0.8221735
H           2.9904106     0.9048509     1.4433848
C           3.5940038     0.0891736    -0.4615637
C           4.6655091    -0.3096376    -1.2676953
H           4.4568937    -0.6959823    -2.2604766
C           5.9675238    -0.2031450    -0.7854895
H           6.7959791    -0.5149231    -1.4160821
26
079_C13H12O_13-14-21-19 (0,) energy =    -577.8308559
C           0.4518220     1.0454024    -0.4348194
C           0.9649689     2.0722135    -1.4132970
H           0.2600372     2.9032015    -1.5107670
C          -0.7408304     1.2286550     0.2756348
H           1.1193904     1.6319866    -2.4047794
H          -1.3084546     2.1426629     0.1170683
C          -1.2131837     0.2677120     1.1714601
H           1.9312546     2.4823021    -1.0958218
H          -2.1432749     0.4385587     1.7064305
C          -0.4942111    -0.9109655     1.3716999
H          -0.8571474    -1.6673121     2.0619903
C           0.6965456    -1.1200313     0.6749559
H           1.2741365    -2.0307494     0.8008752
C           1.1564253    -0.1471814    -0.2105578
O           2.2995716    -0.4059556    -0.9593023
C           6.1329129     0.5908470     0.3526406
H           7.1404374     0.8405889     0.6721427
C           5.0411765     0.8857707     1.1681795
H           5.1945849     1.3683810     2.1299891
C           3.7399731     0.5683440     0.7691099
H           2.8956229     0.7955483     1.4105474
C           3.5388461    -0.0518470    -0.4670088
C           4.6267191    -0.3527431    -1.2944266
H           4.4395128    -0.8353652    -2.2486268
C           5.9163406    -0.0309607    -0.8809163
H           6.7573041    -0.2678563    -1.5273978
26
079_C13H12O_13-14-21-19 (15,) energy =    -577.8309315
C           0.2952014     0.6057573    -0.8622260
C           0.6286442     0.7061381    -2.3299899
H          -0.2002580     0.3389333    -2.9425964
C          -0.9514770     0.1527875    -0.4131441
H           1.5228870     0.1233606    -2.5791478
H          -1.6961789    -0.1404700    -1.1494400
C          -1.2524123     0.0681079     0.9470351
H           0.8377543     1.7419242    -2.6216876
H          -2.2277239    -0.2895885     1.2650451
C          -0.3001762     0.4476012     1.8939647
H          -0.5262342     0.3928136     2.9552611
C           0.9468854     0.9104099     1.4748176
H           1.6995447     1.2228832     2.1922387
C           1.2335346     0.9792875     0.1110183
O           2.4364230     1.5165143    -0.3276521
C           6.1510675    -0.2429554     0.3866224
H           7.1294660    -0.6818153     0.5590081
C           4.9944791    -0.9898549     0.6097756
H           5.0684768    -2.0181915     0.9540319
C           3.7300300    -0.4369603     0.3929624
H           2.8346593    -1.0239847     0.5647139
C           3.6316269     0.8844417    -0.0517757
C           4.7845487     1.6434164    -0.2794719
H           4.6759927     2.6666655    -0.6252602
C           6.0374587     1.0763617    -0.0611635
H           6.9296102     1.6709137    -0.2394328
26
079_C13H12O_13-14-21-19 (30,) energy =    -577.8311438
C           0.2199604     0.6161880    -0.9233755
C           0.4511104     0.7329227    -2.4093377
H          -0.4505600     0.4585272    -2.9652130
C          -1.0260399     0.2631231    -0.3926805
H           1.2699337     0.0834742    -2.7396876
H          -1.8461098     0.0612387    -1.0779288
C          -1.2338152     0.1612147     0.9837519
H           0.7296254     1.7549801    -2.6918976
H          -2.2113127    -0.1190640     1.3659532
C          -0.1827379     0.4241594     1.8626412
H          -0.3333807     0.3571796     2.9366291
C           1.0683647     0.7862431     1.3636079
H           1.8938413     1.0054317     2.0334120
C           1.2607970     0.8707711    -0.0165622
O           2.4624910     1.3016000    -0.5567441
C           6.2005784    -0.1618789     0.5758127
H           7.1852343    -0.5281724     0.8514254
C           5.0806306    -0.9849387     0.7050709
H           5.1917930    -1.9998436     1.0778006
C           3.8104806    -0.5251317     0.3532330
H           2.9430418    -1.1694605     0.4474628
C           3.6665779     0.7799024    -0.1277331
C           4.7805870     1.6130221    -0.2623780
H           4.6375115     2.6198415    -0.6419727
C           6.0431500     1.1372379     0.0869541
H           6.9064989     1.7886263    -0.0196752
26
079_C13H12O_13-14-21-19 (45,) energy =    -577.8311986
C           0.1662466     0.6150858    -0.9550806
C           0.3326264     0.7197150    -2.4503615
H          -0.6135985     0.5175811    -2.9613854
C          -1.0753088     0.3620399    -0.3633281
H           1.0828970     0.0113514    -2.8202265
H          -1.9416112     0.2305009    -1.0076652
C          -1.2230411     0.2708239     1.0221195
H           0.6748049     1.7185784    -2.7464731
H          -2.1996914     0.0686823     1.4526007
C          -0.1110508     0.4430543     1.8454738
H          -0.2118557     0.3833560     2.9257734
C           1.1405885     0.7031892     1.2859795
H           2.0109369     0.8494268     1.9170780
C           1.2705627     0.7789947    -0.1018948
O           2.4688685     1.0966139    -0.7192044
C           6.2090860    -0.0886377     0.6913353
H           7.1944835    -0.3884455     1.0361391
C           5.1487796    -0.9976699     0.7168904
H           5.3084432    -2.0106000     1.0769560
C           3.8803633    -0.6235119     0.2730150
H           3.0565882    -1.3298025     0.2828872
C           3.6758761     0.6798254    -0.1907008
C           4.7280358     1.5968429    -0.2216553
H           4.5394371     2.5991326    -0.5931687
C           5.9935239     1.2067320     0.2169408
H           6.8114698     1.9217292     0.1910216
26
079_C13H12O_13-14-21-19 (60,) energy =    -577.8310217
C           0.1426411     0.6109524    -0.9749583
C           0.2675490     0.6862598    -2.4758484
H          -0.7094027     0.5647813    -2.9535341
C          -1.0933207     0.4629018    -0.3399872
H           0.9392342    -0.0898573    -2.8608955
H          -1.9883086     0.3948288    -0.9543555
C          -1.2016984     0.3970586     1.0511884
H           0.6879388     1.6474551    -2.7953170
H          -2.1761145     0.2779024     1.5162306
C          -0.0520635     0.4867552     1.8335400
H          -0.1195354     0.4440738     2.9173014
C           1.1980489     0.6394548     1.2306225
H           2.0962738     0.7187550     1.8334046
C           1.2864279     0.6942184    -0.1611110
O           2.4805906     0.8886071    -0.8335534
C           6.2096391    -0.0307101     0.7867938
H           7.1926041    -0.2659576     1.1847399
C           5.2317772    -1.0251553     0.6993175
H           5.4540585    -2.0378077     1.0250723
C           3.9691607    -0.7327887     0.1842719
H           3.2057772    -1.5002213     0.1026979
C           3.6871375     0.5706071    -0.2348190
C           4.6551475     1.5715106    -0.1529151
H           4.4080718     2.5716622    -0.4947336
C           5.9182661     1.2647216     0.3561236
H           6.6737507     2.0433443     0.4178334
26
079_C13H12O_13-14-21-19 (75,) energy =    -577.8307764
C           0.1246308     0.6105900    -0.9916462
C           0.2209785     0.6487912    -2.4959191
H          -0.7739162     0.6130922    -2.9501005
C          -1.1030928     0.5730611    -0.3268650
H           0.8066751    -0.1943311    -2.8809081
H          -2.0147022     0.5678912    -0.9202532
C          -1.1839364     0.5396719     1.0678661
H           0.7239284     1.5597572    -2.8422047
H          -2.1534136     0.5084945     1.5567979
C          -0.0126588     0.5474965     1.8215097
H          -0.0568890     0.5259815     2.9071412
C           1.2320153     0.5868790     1.1884948
H           2.1464471     0.5984815     1.7712572
C           1.2913018     0.6146410    -0.2051882
O           2.4777885     0.6782928    -0.9146532
C           6.2002587     0.0349175     0.8475789
H           7.1814601    -0.1314304     1.2830398
C           5.3299795    -1.0403863     0.6503505
H           5.6339025    -2.0457072     0.9293012
C           4.0708751    -0.8344203     0.0863084
H           3.3871622    -1.6606201    -0.0827656
C           3.6865266     0.4593695    -0.2731457
C           4.5463392     1.5404481    -0.0817978
H           4.2220342     2.5323822    -0.3804703
C           5.8066792     1.3223893     0.4781465
H           6.4804197     2.1621778     0.6250560
26
079_C13H12O_13-14-21-19 (90,) energy =    -577.8306569
C           0.1221055     0.6140775    -0.9978071
C           0.2017826     0.6169646    -2.5034966
H          -0.7968590     0.6867061    -2.9453434
C          -1.0948627     0.6952919    -0.3179484
H           0.6824971    -0.2935377    -2.8807934
H          -2.0110562     0.7621363    -0.9004609
C          -1.1598620     0.6921712     1.0782170
H           0.8004270     1.4589333    -2.8712069
H          -2.1216661     0.7562452     1.5789439
C           0.0173064     0.6064861     1.8171502
H          -0.0142964     0.6032293     2.9034509
C           1.2523910     0.5241573     1.1689462
H           2.1708964     0.4579960     1.7413547
C           1.2954544     0.5281383    -0.2254211
O           2.4701794     0.4534408    -0.9529006
C           6.2062725     0.1018943     0.8627165
H           7.1906872     0.0098802     1.3128059
C           5.4571677    -1.0418261     0.5766843
H           5.8577623    -2.0263127     0.8026699
C           4.1935324    -0.9290255    -0.0050743
H           3.5997619    -1.8063451    -0.2424068
C           3.6867550     0.3377884    -0.2975734
C           4.4255996     1.4876872    -0.0177281
H           4.0084477     2.4589330    -0.2650364
C           5.6886602     1.3641162     0.5635086
H           6.2693995     2.2568144     0.7793273
26
079_C13H12O_13-14-21-19 (105,) energy =    -577.8307285
C           0.1215110     0.6164554    -0.9969998
C           0.2050684     0.5827094    -2.5021103
H          -0.7779652     0.7573808    -2.9498669
C          -1.0857933     0.8165933    -0.3241252
H           0.5791792    -0.3837104    -2.8610061
H          -1.9907350     0.9548471    -0.9116188
C          -1.1546334     0.8448163     1.0714271
H           0.8973258     1.3435465    -2.8816995
H          -2.1082624     1.0043341     1.5664478
C           0.0077714     0.6662794     1.8173846
H          -0.0276599     0.6820350     2.9034542
C           1.2321156     0.4621143     1.1761650
H           2.1386090     0.3186345     1.7536059
C           1.2802462     0.4414112    -0.2180156
O           2.4432030     0.2282983    -0.9371160
C           6.2054347     0.1673249     0.8573938
H           7.1961390     0.1490237     1.3026453
C           5.5776882    -1.0263087     0.4961280
H           6.0778905    -1.9770325     0.6594628
C           4.3044744    -1.0072277    -0.0765758
H           3.8005221    -1.9232369    -0.3686487
C           3.6691386     0.2156665    -0.2902467
C           4.2871972     1.4164833     0.0644179
H           3.7731032     2.3548795    -0.1193400
C           5.5575290     1.3861065     0.6404133
H           6.0440446     2.3183017     0.9145260
26
079_C13H12O_13-14-21-19 (120,) energy =    -577.8309443
C           0.1367571     0.6150170    -0.9813566
C           0.2395492     0.5423279    -2.4840181
H          -0.7151720     0.8015669    -2.9516156
C          -1.0608929     0.9268992    -0.3328219
H           0.5231555    -0.4629582    -2.8181901
H          -1.9420715     1.1275002    -0.9381162
C          -1.1483338     0.9894515     1.0601366
H           1.0078581     1.2247074    -2.8660478
H          -2.0928441     1.2378692     1.5356514
C          -0.0165764     0.7298621     1.8301042
H          -0.0683610     0.7681413     2.9149224
C           1.1953136     0.4115372     1.2135701
H           2.0776151     0.2006418     1.8079296
C           1.2641096     0.3618341    -0.1793477
O           2.4140635     0.0166033    -0.8679190
C           6.2235029     0.2307892     0.8118284
H           7.2261304     0.2815736     1.2266977
C           5.6999024    -0.9923814     0.3897343
H           6.2930803    -1.8987997     0.4754915
C           4.4104512    -1.0618802    -0.1410652
H           3.9846130    -2.0024560    -0.4759569
C           3.6529203     0.1034024    -0.2556564
C           4.1671728     1.3350598     0.1587136
H           3.5625088     2.2306417     0.0548828
C           5.4532733     1.3910315     0.6952598
H           5.8573612     2.3474638     1.0160308
26
079_C13H12O_13-14-21-19 (135,) energy =    -577.8311672
C           0.1552620     0.6089486    -0.9607220
C           0.2896989     0.4982851    -2.4587103
H          -0.6251805     0.8337889    -2.9564890
C          -1.0320687     1.0264865    -0.3518768
H           0.4884134    -0.5348852    -2.7679576
H          -1.8783141     1.2844237    -0.9845951
C          -1.1509850     1.1227136     1.0361752
H           1.1262966     1.1007779    -2.8310907
H          -2.0851772     1.4545202     1.4802256
C          -0.0650120     0.7884897     1.8438475
H          -0.1445343     0.8503975     2.9258215
C           1.1324820     0.3625446     1.2671645
H           1.9800120     0.0903766     1.8872686
C           1.2356147     0.2834608    -0.1226858
O           2.3707976    -0.1860951    -0.7614299
C           6.2375504     0.2907306     0.7224687
H           7.2545066     0.4056071     1.0863641
C           5.7952330    -0.9465533     0.2507173
H           6.4667686    -1.8009088     0.2462931
C           4.4879677    -1.0992136    -0.2126433
H           4.1238395    -2.0524692    -0.5825974
C           3.6252455    -0.0021906    -0.2101805
C           4.0579558     1.2444192     0.2522978
H           3.3777912     2.0900206     0.2406791
C           5.3643905     1.3813584     0.7213163
H           5.7024203     2.3499893     1.0799346
26
079_C13H12O_13-14-21-19 (150,) energy =    -577.8311788
C           0.2045593     0.5975751    -0.9363073
C           0.3979352     0.4578614    -2.4256146
H          -0.4610667     0.8638821    -2.9683612
C          -0.9712318     1.1215546    -0.3876644
H           0.5213329    -0.5920530    -2.7165005
H          -1.7625095     1.4425279    -1.0612515
C          -1.1452853     1.2438878     0.9918920
H           1.2985766     0.9831772    -2.7636516
H          -2.0677629     1.6586355     1.3882775
C          -0.1312957     0.8283959     1.8549858
H          -0.2572444     0.9097563     2.9311765
C           1.0493950     0.2946916     1.3382507
H           1.8429781    -0.0435268     1.9968177
C           1.2105159     0.1918049    -0.0446910
O           2.3306240    -0.3986431    -0.6075616
C           6.2462163     0.3622547     0.6087470
H           7.2748934     0.5459015     0.9050193
C           5.8679588    -0.8872406     0.1120330
H           6.6024955    -1.6827993     0.0195181
C           4.5473521    -1.1283522    -0.2637501
H           4.2329776    -2.0926647    -0.6504204
C           3.5994978    -0.1085931    -0.1465659
C           3.9664327     1.1499009     0.3402794
H           3.2264908     1.9392718     0.4185045
C           5.2907188     1.3741380     0.7193212
H           5.5751341     2.3527322     1.0971714
26
079_C13H12O_13-14-21-19 (165,) energy =    -577.8309642
C           0.2879627     0.5846821    -0.8600759
C           0.5801702     0.4396236    -2.3328673
H          -0.1963277     0.9242019    -2.9324152
C          -0.8732705     1.2117195    -0.3920939
H           0.6323096    -0.6149683    -2.6275463
H          -1.5794085     1.6104553    -1.1167493
C          -1.1376043     1.3371408     0.9725308
H           1.5455671     0.8868037    -2.5962690
H          -2.0459631     1.8315103     1.3053394
C          -0.2351375     0.8227775     1.9043505
H          -0.4344567     0.9077987     2.9690209
C           0.9256182     0.1854482     1.4666664
H           1.6360351    -0.2333729     2.1728237
C           1.1783924     0.0785580     0.0984479
O           2.2823925    -0.6240416    -0.3640873
C           6.2309271     0.4582999     0.4360927
H           7.2672319     0.7204554     0.6282700
C           5.9005738    -0.8139242    -0.0391340
H           6.6808700    -1.5485706    -0.2197196
C           4.5725118    -1.1548672    -0.2830497
H           4.2966865    -2.1379930    -0.6515121
C           3.5626649    -0.2151817    -0.0510837
C           3.8790177     1.0635939     0.4165443
H           3.0948112     1.7929528     0.5865015
C           5.2155972     1.3883961     0.6594915
H           5.4590378     2.3834391     1.0229198
26
079_C13H12O_13-14-21-19 (180,) energy =    -577.8308559
C           0.4551120     1.0280447    -0.4582746
C           0.9724137     2.1456065    -1.3292212
H           0.2509996     2.3934674    -2.1135022
C          -0.7629428     0.3880384    -0.7181019
H           1.9187389     1.8737038    -1.8121237
H          -1.3479055     0.7069165    -1.5776837
C          -1.2385750    -0.6384874     0.0998636
H           1.1667308     3.0490875    -0.7404460
H          -2.1885560    -1.1143745    -0.1271265
C          -0.4970034    -1.0451538     1.2093471
H          -0.8620987    -1.8387614     1.8552375
C           0.7193621    -0.4227811     1.4925028
H           1.3151321    -0.7093166     2.3537941
C           1.1819297     0.5958188     0.6615039
O           2.3535754     1.2628220     1.0033084
C           6.1192998     0.0263075    -0.3004608
H           7.1101329    -0.2755578    -0.6270858
C           5.9562109     1.1487112     0.5173644
H           6.8223029     1.7257339     0.8307447
C           4.6881683     1.5392710     0.9382884
H           4.5422526     2.4077925     1.5729864
C           3.5682069     0.8006213     0.5399231
C           3.7158345    -0.3239548    -0.2765156
H           2.8467118    -0.8973153    -0.5796009
C           4.9959901    -0.7013635    -0.6911635
H           5.1077215    -1.5763849    -1.3262880
