22
246_C8H10N2O2_17-0-2-8 (-165,) energy =    -570.8558109
N           1.6887307    -0.6510444    -1.9724447
H           2.4790079    -0.4982720    -2.5963502
C           1.8261926    -0.1891327    -0.7015858
C           5.7054430     1.3637492     0.4146984
H           6.6938329     1.7614752     0.6173564
N           5.4370053     1.0267114    -0.8718417
H           6.1349658     1.1337112    -1.5992599
C           4.2285687     0.4871265    -1.3292513
C           3.1936926     0.3233441    -0.3085774
C           3.4673081     0.6608254     1.0167317
C           2.4803422     0.5062269     2.1495173
H           2.9697203     0.7199729     3.1052077
H           2.0512246    -0.4973178     2.1742633
H           1.6305645     1.1815944     2.0200390
C           4.7486126     1.1878372     1.3670198
H           4.9609344     1.4512737     2.3961959
O           0.8740393    -0.1612553     0.0841022
C           0.3613311    -0.8502214    -2.5267514
H           0.4617647    -1.2527493    -3.5376844
H          -0.2092038     0.0873036    -2.5667713
H          -0.2052722    -1.5571752    -1.9145029
O           4.1593832     0.2089489    -2.5364425
22
246_C8H10N2O2_17-0-2-8 (-150,) energy =    -570.8527294
N           1.8127531    -0.9244744    -1.9514422
H           2.6296215    -0.7785531    -2.5440526
C           1.9400397    -0.4164472    -0.6883391
C           5.7377636     1.3694982     0.3649817
H           6.7002890     1.8332184     0.5513816
N           5.4833283     0.9846365    -0.9105419
H           6.1715247     1.1111824    -1.6441497
C           4.3108539     0.3534111    -1.3452546
C           3.2883194     0.1618475    -0.3164130
C           3.5518954     0.5425437     0.9999797
C           2.5867752     0.3509583     2.1458014
H           3.0818589     0.5808159     3.0948144
H           2.1923678    -0.6664444     2.1755844
H           1.7134294     0.9982594     2.0292448
C           4.7999248     1.1556850     1.3284649
H           5.0020329     1.4549470     2.3498565
O           0.9918700    -0.3671173     0.0987741
C           0.5193739    -0.8898397    -2.6190634
H           0.4621636    -1.6920954    -3.3611809
H           0.3529285     0.0709376    -3.1266709
H          -0.2650442    -1.0345195    -1.8753524
O           4.2608553     0.0276316    -2.5410990
22
246_C8H10N2O2_17-0-2-8 (-135,) energy =    -570.8476794
N           1.8084217    -1.0576831    -1.9130676
H           2.6481506    -0.9401028    -2.4802318
C           1.9633795    -0.5584144    -0.6409636
C           5.6828352     1.4314194     0.3220012
H           6.6221566     1.9489890     0.4834289
N           5.4432838     0.9828789    -0.9351087
H           6.1228606     1.1102167    -1.6766138
C           4.3028131     0.2747069    -1.3366501
C           3.2901656     0.0836195    -0.2972123
C           3.5438250     0.5237516     1.0034677
C           2.5975196     0.3275061     2.1638267
H           3.0882759     0.6142696     3.0994893
H           2.2522715    -0.7057373     2.2330595
H           1.6933159     0.9280912     2.0327292
C           4.7610195     1.2104534     1.2994483
H           4.9528149     1.5594977     2.3069357
O           1.0270098    -0.5271130     0.1590175
C           0.5708818    -0.7726931    -2.6343018
H           0.4196997    -1.5173201    -3.4217316
H           0.5934775     0.2255616    -3.0944854
H          -0.2661882    -0.8234500    -1.9365870
O           4.2700183    -0.1106755    -2.5147072
22
246_C8H10N2O2_17-0-2-8 (-120,) energy =    -570.8411442
N           1.8078454    -1.1743993    -1.9016656
H           2.6559767    -1.0832927    -2.4611493
C           2.0133007    -0.7241760    -0.6079002
C           5.6388675     1.4779885     0.2480942
H           6.5541024     2.0443403     0.3819218
N           5.4155707     0.9652503    -0.9867377
H           6.0874656     1.0880498    -1.7360261
C           4.3070143     0.1881106    -1.3509399
C           3.3071206    -0.0031116    -0.2981548
C           3.5470660     0.5028313     0.9821795
C           2.6178557     0.3137598     2.1571799
H           3.0790829     0.7107931     3.0670976
H           2.3658684    -0.7384853     2.3048028
H           1.6636374     0.8186718     1.9854793
C           4.7311344     1.2591730     1.2393968
H           4.9104255     1.6613587     2.2291699
O           1.1123937    -0.7710708     0.2280853
C           0.6456873    -0.6520169    -2.6246735
H           0.4290292    -1.2937628    -3.4839012
H           0.8167495     0.3725661    -2.9862413
H          -0.2213187    -0.6559869    -1.9614235
O           4.2893514    -0.2506733    -2.5096582
22
246_C8H10N2O2_17-0-2-8 (-105,) energy =    -570.8341179
N           1.7742611    -1.2324581    -1.8818360
H           2.6233511    -1.1506534    -2.4426102
C           2.0573996    -0.8844724    -0.5565505
C           5.5725785     1.5129188     0.2288151
H           6.4654389     2.1173917     0.3461746
N           5.3885769     0.9273440    -0.9796659
H           6.0665282     1.0370590    -1.7255537
C           4.3092272     0.0991977    -1.3199011
C           3.3052474    -0.0801994    -0.2685248
C           3.5045596     0.5034213     0.9859107
C           2.5633560     0.3455692     2.1556095
H           2.9396586     0.9042350     3.0183464
H           2.4434487    -0.7056310     2.4289387
H           1.5586489     0.6953172     1.9059784
C           4.6546827     1.3187108     1.2161635
H           4.8020945     1.7831720     2.1836520
O           1.2275263    -1.0797701     0.3254591
C           0.6959528    -0.4687574    -2.5236139
H           0.4564403    -0.9298290    -3.4860954
H           0.9696551     0.5833124    -2.6980766
H          -0.1971544    -0.5020450    -1.8951086
O           4.3168322    -0.3928609    -2.4561149
22
246_C8H10N2O2_17-0-2-8 (-90,) energy =    -570.8277274
N           1.7423869    -1.3044782    -1.8874325
H           2.5902348    -1.2605943    -2.4564329
C           2.1085954    -1.0421028    -0.5460238
C           5.5068125     1.5294093     0.1725389
H           6.3765534     2.1693485     0.2746517
N           5.3589435     0.8893061    -1.0134176
H           6.0396579     0.9971785    -1.7570804
C           4.3077618     0.0171365    -1.3341809
C           3.3082140    -0.1637575    -0.2797435
C           3.4679941     0.4787067     0.9501452
C           2.5140217     0.3312476     2.1105293
H           2.7950793     1.0138620     2.9184659
H           2.5147756    -0.6941912     2.4897894
H           1.4822689     0.5291861     1.8102245
C           4.5834197     1.3464457     1.1575097
H           4.7018485     1.8580357     2.1050506
O           1.3762873    -1.3866347     0.3701489
C           0.7915627    -0.3240087    -2.4394539
H           0.5251630    -0.6311974    -3.4546355
H           1.1952374     0.7006587    -2.4803694
H          -0.1199945    -0.3175201    -1.8351528
O           4.3325631    -0.5119915    -2.4521415
22
246_C8H10N2O2_17-0-2-8 (-75,) energy =    -570.8300088
N           1.8248314    -1.2390800    -1.8830481
H           1.2334528    -2.0645925    -1.7853840
C           2.1050991    -0.8657426    -0.5643135
C           5.5135850     1.6210682     0.3127397
H           6.4168076     2.1992844     0.4776544
N           5.3027465     1.1659792    -0.9439455
H           5.9428704     1.3900657    -1.6974087
C           4.1662597     0.4435733    -1.3772724
C           3.2418999     0.0750379    -0.2965854
C           3.4508560     0.5596759     0.9972524
C           2.5217841     0.2977695     2.1597509
H           2.7450120     0.9893542     2.9786788
H           2.6386918    -0.7280958     2.5213101
H           1.4719726     0.3940707     1.8776541
C           4.6027954     1.3494352     1.2898461
H           4.7638844     1.7212501     2.2945198
O           1.5617074    -1.4705649     0.3607679
C           1.1606791    -0.2939995    -2.7938685
H           0.1774221     0.0264666    -2.4199102
H           1.0274359    -0.7845340    -3.7620999
H           1.8000925     0.5748900    -2.9507318
O           4.0771655     0.2096095    -2.5787219
22
246_C8H10N2O2_17-0-2-8 (-60,) energy =    -570.8347060
N           1.7589871    -1.2297084    -1.8582042
H           1.1341530    -2.0324027    -1.8137316
C           2.1805414    -0.9941872    -0.5595416
C           5.4648962     1.6620931     0.2862730
H           6.3378435     2.2864483     0.4455997
N           5.3097310     1.1379319    -0.9532468
H           5.9698507     1.3425306    -1.6948122
C           4.2242765     0.3384583    -1.3785985
C           3.2748929     0.0054367    -0.3109196
C           3.4316530     0.5453639     0.9642821
C           2.4815720     0.2806745     2.1092455
H           2.5864024     1.0605276     2.8706669
H           2.7023788    -0.6882683     2.5678470
H           1.4416639     0.2285326     1.7836518
C           4.5400168     1.3981045     1.2516394
H           4.6564545     1.8229274     2.2414986
O           1.7816650    -1.7176585     0.3542683
C           1.1987976    -0.1763723    -2.7094892
H           0.2714732     0.2477766    -2.2981506
H           0.9830732    -0.6052366    -3.6919195
H           1.9362865     0.6131166    -2.8535465
O           4.1903094     0.0123657    -2.5620347
22
246_C8H10N2O2_17-0-2-8 (-45,) energy =    -570.8383371
N           1.0333345    -0.5576196    -1.3034995
H           0.0792875    -0.3012569    -1.5478176
C           1.6998814     0.5798281    -0.8947163
C           5.8060354     0.3561295     0.3272706
H           6.8665006     0.3263921     0.5529047
N           5.4676064     0.3439931    -0.9926363
H           6.1814474     0.3255132    -1.7118790
C           4.1506152     0.3829520    -1.4848954
C           3.1356391     0.4187441    -0.4473307
C           3.4590437     0.4459954     0.8922101
C           2.3949547     0.5483125     1.9583092
H           2.7896950     0.2682192     2.9393751
H           1.5383452    -0.0929831     1.7298872
H           2.0181375     1.5757215     2.0154932
C           4.8353811     0.3995317     1.2824641
H           5.1083404     0.4065947     2.3312729
O           1.1065489     1.6347262    -0.7091485
C           1.6049285    -1.5685321    -2.1970262
H           0.8992690    -2.4011411    -2.2675647
H           2.5365154    -1.9512261    -1.7740772
H           1.8189892    -1.1743612    -3.1954715
O           3.9495797     0.3829952    -2.7006287
22
246_C8H10N2O2_17-0-2-8 (-30,) energy =    -570.8409897
N           1.0319457    -0.5120030    -1.4272359
H           0.0925777    -0.2635437    -1.7224421
C           1.6664755     0.5763257    -0.8831427
C           5.7839679     0.3418500     0.3051815
H           6.8458270     0.3073582     0.5236977
N           5.4357386     0.3327971    -1.0113691
H           6.1438975     0.3149586    -1.7362542
C           4.1154071     0.3789015    -1.4961821
C           3.1055302     0.4094946    -0.4517445
C           3.4417123     0.4408906     0.8861365
C           2.3894575     0.5493410     1.9636026
H           2.7987605     0.2835781     2.9426998
H           1.5325572    -0.0981906     1.7550502
H           2.0060931     1.5743557     2.0102766
C           4.8198494     0.3890848     1.2669877
H           5.0998870     0.3948472     2.3139015
O           1.0542491     1.6058541    -0.6180968
C           1.6588010    -1.5874227    -2.1900305
H           0.9326403    -2.3976473    -2.3025515
H           2.5160207    -1.9792961    -1.6369765
H           2.0066462    -1.2565269    -3.1734499
O           3.9132046     0.3920039    -2.7114078
22
246_C8H10N2O2_17-0-2-8 (-15,) energy =    -570.8422604
N           1.0442260    -0.4351861    -1.5107189
H           0.1078989    -0.1872857    -1.8096424
C           1.6507861     0.5851648    -0.8346869
C           5.7877590     0.3448361     0.2892771
H           6.8527113     0.3096648     0.4922650
N           5.4207073     0.3392204    -1.0213590
H           6.1181686     0.3239657    -1.7566133
C           4.0935386     0.3850135    -1.4895103
C           3.0959781     0.4123698    -0.4306391
C           3.4543914     0.4437406     0.9030193
C           2.4244083     0.5539663     2.0017142
H           2.8472708     0.2577593     2.9664118
H           1.5456847    -0.0644613     1.7984699
H           2.0685149     1.5869970     2.0767791
C           4.8372245     0.3898508     1.2645675
H           5.1316202     0.3932540     2.3075393
O           1.0225070     1.5812599    -0.4838663
C           1.6700211    -1.5722383    -2.1696548
H           0.9186344    -2.3574935    -2.2955248
H           2.4681611    -1.9696847    -1.5373681
H           2.0996891    -1.3069116    -3.1405187
O           3.8815085     0.4043431    -2.7024873
22
246_C8H10N2O2_17-0-2-8 (0,) energy =    -570.8424621
N           1.0773107    -0.3673581    -1.6063650
H           0.1311486    -0.1310356    -1.8785730
C           1.6453109     0.5763863    -0.8044813
C           5.7953623     0.3508200     0.2846389
H           6.8617754     0.3190753     0.4807875
N           5.4186444     0.3381873    -1.0222100
H           6.1098853     0.3209832    -1.7632804
C           4.0876025     0.3762371    -1.4831334
C           3.0944035     0.4086496    -0.4171503
C           3.4657240     0.4477010     0.9146055
C           2.4524274     0.5600001     2.0287140
H           2.8862604     0.2429665     2.9820734
H           1.5578383    -0.0362191     1.8316585
H           2.1170460     1.5980903     2.1237006
C           4.8510101     0.3978156     1.2657890
H           5.1523637     0.4066377     2.3066928
O           0.9911526     1.5261003    -0.3751664
C           1.6739279    -1.5648825    -2.1735679
H           0.8954847    -2.3258608    -2.2871170
H           2.4316498    -1.9585101    -1.4910098
H           2.1487387    -1.3716094    -3.1403057
O           3.8750970     0.3867667    -2.6953703
22
246_C8H10N2O2_17-0-2-8 (15,) energy =    -570.8418439
N           1.1341146    -0.3013770    -1.7257176
H           0.1755310    -0.0810067    -1.9656125
C           1.6469068     0.5567449    -0.7999222
C           5.7924518     0.3732605     0.3243516
H           6.8571483     0.3511380     0.5312710
N           5.4278232     0.3392269    -0.9843629
H           6.1258123     0.3112101    -1.7187432
C           4.1006487     0.3558895    -1.4614123
C           3.0941392     0.4055752    -0.4048839
C           3.4564147     0.4650395     0.9307300
C           2.4422019     0.5838164     2.0434271
H           2.8671887     0.2349684     2.9899664
H           1.5283824     0.0240789     1.8336310
H           2.1402039     1.6299437     2.1612683
C           4.8382624     0.4278328     1.2954181
H           5.1290921     0.4529379     2.3390285
O           0.9542549     1.4488096    -0.3085538
C           1.6833291    -1.5576689    -2.2082358
H           0.8788629    -2.2976885    -2.2756527
H           2.4277340    -1.9332728    -1.5016816
H           2.1642828    -1.4447928    -3.1844287
O           3.9087388     0.3375324    -2.6760681
22
246_C8H10N2O2_17-0-2-8 (30,) energy =    -570.8403872
N           1.1896467    -0.2521549    -1.8375560
H           0.2227690    -0.0348717    -2.0496060
C           1.6477102     0.5088163    -0.7994345
C           5.7906682     0.3951510     0.3543757
H           6.8538490     0.3938773     0.5704028
N           5.4375295     0.3337628    -0.9553286
H           6.1408148     0.2970085    -1.6842622
C           4.1139520     0.3118408    -1.4454955
C           3.0942329     0.3798219    -0.3985935
C           3.4481331     0.4604536     0.9402930
C           2.4323728     0.5748833     2.0523281
H           2.8624141     0.2300505     2.9982685
H           1.5208690     0.0119547     1.8442164
H           2.1248616     1.6193630     2.1701095
C           4.8270493     0.4489009     1.3160577
H           5.1081465     0.4942664     2.3616025
O           0.9172082     1.3362781    -0.2520515
C           1.6639460    -1.5660710    -2.2492815
H           0.8325173    -2.2799734    -2.2281417
H           2.4296682    -1.9197882    -1.5554287
H           2.1003081    -1.5400995    -3.2519885
O           3.9422593     0.2485479    -2.6606842
22
246_C8H10N2O2_17-0-2-8 (45,) energy =    -570.8381933
N           1.3210077    -0.1833350    -1.9963620
H           0.3470998     0.0466212    -2.1728334
C           1.7198012     0.4791004    -0.8581025
C           5.8062584     0.4298259     0.4983486
H           6.8564629     0.4531100     0.7696622
N           5.5220530     0.3513225    -0.8254897
H           6.2615352     0.3103594    -1.5175371
C           4.2272050     0.2805183    -1.3842108
C           3.1484842     0.3630676    -0.3975288
C           3.4350072     0.4550975     0.9599226
C           2.3711919     0.5526803     2.0285655
H           2.7715241     0.2176106     2.9910083
H           1.4800488    -0.0279730     1.7859125
H           2.0384607     1.5906207     2.1323775
C           4.7916358     0.4679613     1.4068368
H           5.0156931     0.5246417     2.4654331
O           0.9458165     1.2469358    -0.2846506
C           1.6595957    -1.5682995    -2.3168866
H           1.2602250    -2.2829293    -1.5829528
H           2.7412255    -1.6769048    -2.3932590
H           1.2373007    -1.8049342    -3.2972448
O           4.1329524     0.1642167    -2.6041558
22
246_C8H10N2O2_17-0-2-8 (60,) energy =    -570.8347060
N           1.4104719    -0.1164751    -2.0872822
H           0.4477996     0.1634544    -2.2650892
C           1.7429392     0.4045412    -0.8472377
C           5.8256739     0.5023659     0.5238666
H           6.8734632     0.5664290     0.7982297
N           5.5493330     0.3665130    -0.7953795
H           6.2920770     0.3063317    -1.4825823
C           4.2593597     0.2224314    -1.3552928
C           3.1697821     0.3386758    -0.3798552
C           3.4520682     0.4763550     0.9779353
C           2.3906476     0.5684682     2.0496430
H           2.8190575     0.3113918     3.0239631
H           1.5365227    -0.0790320     1.8462882
H           1.9914703     1.5863140     2.1003235
C           4.8057266     0.5430345     1.4266833
H           5.0236263     0.6427210     2.4832986
O           0.9132412     1.0616733    -0.2168886
C           1.6186492    -1.5254272    -2.4330152
H           1.0358605    -2.2053604    -1.7949865
H           2.6786881    -1.7695715    -2.3648523
H           1.3153812    -1.6737632    -3.4730420
O           4.1856767     0.0236042    -2.5648588
22
246_C8H10N2O2_17-0-2-8 (75,) energy =    -570.8300088
N           1.4627227    -0.0822898    -2.1210677
H           0.5093098     0.2523612    -2.2616034
C           1.7512747     0.2645125    -0.7968857
C           5.8405975     0.5695476     0.5281143
H           6.8875898     0.6870458     0.7876205
N           5.5578571     0.3448609    -0.7758760
H           6.2960327     0.2547264    -1.4648264
C           4.2686785     0.1117620    -1.3096625
C           3.1789361     0.2732138    -0.3377895
C           3.4721215     0.4879458     1.0114646
C           2.4276722     0.5957840     2.0980508
H           2.8994352     0.4909315     3.0805012
H           1.6417474    -0.1535583     1.9895831
H           1.9220870     1.5647374     2.0500368
C           4.8268256     0.6279355     1.4374640
H           5.0510487     0.7974421     2.4836747
O           0.8654757     0.7569642    -0.0970916
C           1.5321093    -1.4878907    -2.5492513
H           0.8503645    -2.1336364    -1.9769104
H           2.5557615    -1.8503205    -2.4533058
H           1.2618533    -1.5393680    -3.6076283
O           4.2017721    -0.1933144    -2.4965111
22
246_C8H10N2O2_17-0-2-8 (90,) energy =    -570.8277274
N           1.3591673    -0.0799263    -2.1394072
H           2.1501369     0.1462780    -2.7458162
C           1.6555953     0.4059173    -0.8438713
C           5.8005752     0.5844079     0.3661582
H           6.8606675     0.6143686     0.5935455
N           5.4607969     0.5593866    -0.9460974
H           6.1678949     0.5827919    -1.6723946
C           4.1476779     0.5266099    -1.4392465
C           3.1012909     0.4956999    -0.4156379
C           3.4472957     0.5412936     0.9368115
C           2.4450890     0.5482782     2.0654531
H           2.9610966     0.4779305     3.0280042
H           1.7318818    -0.2745074     1.9747002
H           1.8414128     1.4596502     2.0470279
C           4.8240071     0.5717397     1.3161328
H           5.0958084     0.5917607     2.3646110
O           0.7566976     0.5951148    -0.0373126
C           1.1699671    -1.5399684    -2.1903503
H           0.8950461    -1.8197504    -3.2111676
H           0.3497967    -1.8263822    -1.5259362
H           2.0704628    -2.1073224    -1.9043651
O           4.0041893     0.5368705    -2.6679585
22
246_C8H10N2O2_17-0-2-8 (105,) energy =    -570.8341179
N           1.4244084    -0.1148279    -2.1118558
H           2.2362536     0.0863856    -2.6971197
C           1.7006705     0.2550588    -0.7910576
C           5.8397374     0.6531623     0.4049349
H           6.8978580     0.7280629     0.6310572
N           5.5024039     0.5590553    -0.9044659
H           6.2084694     0.5787551    -1.6318501
C           4.1922337     0.4705883    -1.3966146
C           3.1433354     0.4350222    -0.3748034
C           3.4871245     0.5555473     0.9747271
C           2.4887634     0.5807284     2.1068130
H           3.0096842     0.6758888     3.0647340
H           1.8754275    -0.3236130     2.1146518
H           1.7828553     1.4072909     1.9945768
C           4.8613008     0.6528526     1.3524416
H           5.1290744     0.7315253     2.3991494
O           0.8064642     0.2658182     0.0486154
C           1.0208844    -1.5133601    -2.3097009
H           0.6780612    -1.6432310    -3.3402006
H           0.1914901    -1.7509084    -1.6392952
H           1.8436489    -2.2207193    -2.1228784
O           4.0568461     0.4368645    -2.6269374
22
246_C8H10N2O2_17-0-2-8 (120,) energy =    -570.8411442
N           1.4862833    -0.1474220    -2.1130703
H           2.3022823     0.0467077    -2.6936810
C           1.7576796     0.0913659    -0.7758844
C           5.8733970     0.7227921     0.4027454
H           6.9273357     0.8446648     0.6278670
N           5.5463396     0.5426739    -0.9003904
H           6.2549337     0.5479501    -1.6255266
C           4.2425873     0.3910615    -1.3930674
C           3.1904424     0.3671652    -0.3746717
C           3.5224626     0.5779304     0.9662793
C           2.5163505     0.6351649     2.0906763
H           3.0138468     0.9158809     3.0244923
H           2.0210858    -0.3305993     2.2209154
H           1.7145101     1.3448802     1.8765114
C           4.8894633     0.7480531     1.3439030
H           5.1470522     0.8992374     2.3852199
O           0.8910377    -0.0654143     0.0826355
C           0.8902059    -1.4389359    -2.4636683
H           0.4557419    -1.3826559    -3.4662273
H           0.0946131    -1.6718078    -1.7534439
H           1.6338704    -2.2491808    -2.4484881
O           4.1179595     0.2951585    -2.6221899
22
246_C8H10N2O2_17-0-2-8 (135,) energy =    -570.8476794
N           1.5520224    -0.2393965    -2.0816613
H           2.3764306    -0.0726818    -2.6588968
C           1.8108135    -0.0730091    -0.7411871
C           5.8760366     0.8086915     0.4494610
H           6.9201190     0.9905510     0.6798525
N           5.5731875     0.5631922    -0.8493511
H           6.2897400     0.5720764    -1.5665276
C           4.2849550     0.3285486    -1.3481630
C           3.2238019     0.2927387    -0.3406534
C           3.5288501     0.5680068     0.9938888
C           2.5062804     0.6159835     2.1040639
H           2.9649915     1.0052829     3.0187053
H           2.1002252    -0.3799808     2.3006482
H           1.6463984     1.2321234     1.8346981
C           4.8808074     0.8228289     1.3785965
H           5.1176587     1.0273509     2.4157656
O           0.9616068    -0.3211236     0.1161496
C           0.7631882    -1.3922982    -2.5076332
H           0.3186767    -1.1966634    -3.4881975
H          -0.0371492    -1.5608878    -1.7857601
H           1.3803687    -2.2995759    -2.5764294
O           4.1792159     0.1770784    -2.5742502
22
246_C8H10N2O2_17-0-2-8 (150,) energy =    -570.8527294
N           1.6328595    -0.3514184    -2.0696614
H           2.4566925    -0.2277576    -2.6576761
C           1.8745389    -0.2100955    -0.7312514
C           5.8828293     0.9010131     0.4607658
H           6.9138438     1.1452388     0.6922822
N           5.6045659     0.5926285    -0.8304677
H           6.3269693     0.6096685    -1.5415594
C           4.3356748     0.2704075    -1.3286717
C           3.2672653     0.2257298    -0.3300256
C           3.5462247     0.5569877     0.9965277
C           2.5122507     0.5859167     2.0970416
H           2.9418807     1.0254148     3.0030368
H           2.1557612    -0.4231911     2.3204956
H           1.6247028     1.1489242     1.8023622
C           4.8798044     0.8959587     1.3813481
H           5.0963813     1.1487387     2.4122907
O           1.0268893    -0.4829757     0.1219978
C           0.6546062    -1.3265519    -2.5299662
H           0.2513138    -1.0195925    -3.4998921
H          -0.1586730    -1.3788669    -1.8052663
H           1.0998990    -2.3261273    -2.6349735
O           4.2503127     0.0580862    -2.5478147
22
246_C8H10N2O2_17-0-2-8 (165,) energy =    -570.8558109
N           1.6821302    -0.6332629    -1.9766434
H           2.4911802    -0.5405725    -2.5881845
C           1.9061518    -0.4488526    -0.6488076
C           5.8473036     0.9055600     0.5083449
H           6.8617978     1.2196165     0.7282107
N           5.5848699     0.5494161    -0.7742816
H           6.3039557     0.5887744    -1.4877951
C           4.3388968     0.1301599    -1.2564317
C           3.2763898     0.0548151    -0.2539496
C           3.5389997     0.4274341     1.0641525
C           2.5086302     0.4118053     2.1683716
H           2.9239110     0.8628891     3.0753378
H           2.1886097    -0.6102537     2.3874426
H           1.6004079     0.9433980     1.8778613
C           4.8505458     0.8575038     1.4343851
H           5.0550954     1.1457474     2.4584740
O           1.0436516    -0.7083271     0.1958487
C           0.5348853    -1.4096525    -2.4124952
H           0.5113419    -1.4148816    -3.5049787
H          -0.3909380    -0.9656281    -2.0365119
H           0.5799176    -2.4445123    -2.0476633
O           4.2649671    -0.1327018    -2.4667693
22
246_C8H10N2O2_17-0-2-8 (180,) energy =    -570.8567295
N           1.9198647    -0.6345380    -2.0286913
H           2.7326713    -0.5107632    -2.6279016
C           2.0473922    -0.3152769    -0.7178735
C           5.9141885     1.1432564     0.5616366
H           6.9077161     1.5009963     0.8087548
N           5.6942109     0.8029252    -0.7331379
H           6.4271706     0.8816981    -1.4290462
C           4.4836437     0.3218885    -1.2460902
C           3.3998348     0.1938332    -0.2720610
C           3.6207609     0.5427473     1.0603444
C           2.5739592     0.4492842     2.1452644
H           2.9939392     0.7783949     3.1011830
H           2.1976502    -0.5713990     2.2447225
H           1.6987738     1.0566597     1.9034562
C           4.9041907     1.0229955     1.4664100
H           5.0761224     1.2936894     2.5011992
O           1.1030860    -0.4363719     0.0699636
C           0.6581347    -1.1302219    -2.5415250
H           0.7718431    -1.3351451    -3.6087205
H          -0.1436569    -0.3962844    -2.3995989
H           0.3570586    -2.0505689    -2.0281544
O           4.4544639     0.0570553    -2.4581774
