22
246_C8H10N2O2_0-2-8-9 (-165,) energy =    -570.8564698
N           1.9332384    -0.6831291    -1.9454595
H           2.7382184    -0.5737854    -2.5584961
C           2.0246839    -0.1377417    -0.7060348
C           5.9333607     1.2389272     0.5230502
H           6.9317000     1.5941295     0.7538764
N           5.6747810     0.9545604    -0.7787178
H           6.3900675     1.0556028    -1.4899621
C           4.4573139     0.4687598    -1.2707010
C           3.3980559     0.3229096    -0.2736929
C           3.6607503     0.6019744     1.0661115
C           2.6454582     0.4507554     2.1740779
H           3.1292170     0.5829761     3.1472229
H           2.1531448    -0.5229290     2.1389601
H           1.8433529     1.1861290     2.0682099
C           4.9560412     1.0647811     1.4547053
H           5.1613841     1.2841459     2.4956187
O           1.0455353    -0.0525713     0.0416176
C           0.6456579    -1.0990048    -2.4672010
H           0.8043978    -1.6327470    -3.4075319
H          -0.0204488    -0.2449965    -2.6482641
H           0.1471196    -1.7622470    -1.7546456
O           4.3991313     0.2145699    -2.4836434
22
246_C8H10N2O2_0-2-8-9 (-150,) energy =    -570.8552718
N           1.9050592    -0.8029669    -1.9401266
H           2.7103075    -0.7367831    -2.5589512
C           1.9713903    -0.0530277    -0.8066508
C           5.9148117     1.1943964     0.4201517
H           6.9214857     1.5265549     0.6490510
N           5.6304721     0.9772206    -0.8907547
H           6.3395847     1.0918314    -1.6060731
C           4.4022480     0.5151595    -1.3797066
C           3.3555965     0.3677698    -0.3726711
C           3.6450575     0.5604243     0.9733130
C           2.6363158     0.3689949     2.0807461
H           3.1441031     0.3244734     3.0495917
H           2.0404536    -0.5341418     1.9385338
H           1.9210109     1.1969295     2.0934324
C           4.9549076     0.9817410     1.3621660
H           5.1838824     1.1421037     2.4090465
O           0.9756235     0.2072491    -0.1276301
C           0.6135285    -1.1892729    -2.4798473
H           0.7698006    -1.9189414    -3.2784381
H           0.0564290    -0.3320168    -2.8818297
H           0.0065493    -1.6407350    -1.6913962
O           4.3176685     0.2762672    -2.5931335
22
246_C8H10N2O2_0-2-8-9 (-135,) energy =    -570.8526130
N           2.0398313    -0.8309140    -1.7600967
H           2.8720431    -0.8502419    -2.3446121
C           2.0750730     0.0930291    -0.7557548
C           6.0200077     1.1122063     0.6372693
H           7.0327057     1.3898860     0.9082908
N           5.7612979     0.9849376    -0.6925217
H           6.4983366     1.0928411    -1.3801121
C           4.5316162     0.5855053    -1.2324859
C           3.4542346     0.4554001    -0.2594971
C           3.7150133     0.5412347     1.0993249
C           2.6563041     0.3309185     2.1553013
H           3.1210850     0.1468229     3.1290472
H           1.9912305    -0.4991846     1.9095282
H           2.0176745     1.2166939     2.2332248
C           5.0309382     0.8821881     1.5447266
H           5.2408817     0.9688187     2.6043353
O           1.0618458     0.5174150    -0.2008571
C           0.7683431    -1.1875286    -2.3692026
H           0.9019405    -2.0956258    -2.9630673
H           0.3754419    -0.3913094    -3.0163797
H           0.0353563    -1.3739888    -1.5820142
O           4.4621684     0.3736811    -2.4503668
22
246_C8H10N2O2_0-2-8-9 (-120,) energy =    -570.8487068
N           1.9957603    -0.8620617    -1.6742796
H           2.8379501    -1.0018987    -2.2238977
C           2.0508966     0.2129991    -0.8294711
C           6.0150824     1.1028001     0.5733419
H           7.0352668     1.3498469     0.8461098
N           5.7371515     1.0629912    -0.7592432
H           6.4692601     1.1987654    -1.4471281
C           4.4927248     0.7116098    -1.3048363
C           3.4337889     0.5480482    -0.3214586
C           3.7114664     0.5328655     1.0328242
C           2.6442851     0.2554100     2.0646764
H           3.0823592     0.1523979     3.0616349
H           2.0918290    -0.6599806     1.8296901
H           1.9083273     1.0644132     2.0779047
C           5.0369185     0.8295750     1.4816945
H           5.2639866     0.8469087     2.5411791
O           1.0512847     0.7776529    -0.3935159
C           0.7333841    -1.2217183    -2.3047608
H           0.8051882    -2.2418291    -2.6917055
H           0.4683710    -0.5437777    -3.1273904
H          -0.0581960    -1.1726639    -1.5554137
O           4.3907471     0.5554042    -2.5264657
22
246_C8H10N2O2_0-2-8-9 (-105,) energy =    -570.8449289
N           1.5866454    -0.8594643    -1.6035312
H           2.3977068    -1.2483334    -2.0689950
C           1.7790486     0.3609646    -1.0153400
C           5.8806498     1.1366953     0.0041706
H           6.9291152     1.3585447     0.1712981
N           5.4584704     1.1496535    -1.2923518
H           6.1111243     1.3156827    -2.0497617
C           4.1504299     0.8516351    -1.7103293
C           3.2120170     0.6447145    -0.6173705
C           3.6289812     0.5935253     0.6951156
C           2.6822986     0.2728008     1.8265808
H           2.9581373     0.8256830     2.7306587
H           2.7300995    -0.7966066     2.0719670
H           1.6522029     0.5195685     1.5656099
C           5.0033162     0.8547353     1.0063139
H           5.3438110     0.8398916     2.0352891
O           0.8571255     1.1136647    -0.7205612
C           0.2865167    -1.1995089    -2.1662469
H           0.2400714    -2.2789757    -2.3330802
H           0.0949446    -0.6786354    -3.1135690
H          -0.4873270    -0.9089355    -1.4540680
O           3.8931493     0.7707981    -2.9127659
22
246_C8H10N2O2_0-2-8-9 (-90,) energy =    -570.8425573
N           1.5238689    -0.8737919    -1.4593904
H           2.3132617    -1.4715927    -1.6646483
C           1.8053131     0.4205785    -1.1181796
C           5.8810179     1.1583513     0.0137970
H           6.9238558     1.3828375     0.2104670
N           5.4784080     1.2477748    -1.2858552
H           6.1357987     1.4954631    -2.0162919
C           4.1737361     0.9848736    -1.7450243
C           3.2362593     0.6536476    -0.6817297
C           3.6294500     0.5409858     0.6320090
C           2.6604726     0.1489822     1.7222604
H           2.9050031     0.6598866     2.6594270
H           2.7113454    -0.9303365     1.9168327
H           1.6316318     0.3967142     1.4528295
C           4.9939844     0.8042886     0.9841648
H           5.3185745     0.7345861     2.0160395
O           0.9572164     1.3022518    -1.0775596
C           0.2367593    -1.2314235    -2.0370988
H           0.0546686    -2.2991433    -1.8863467
H           0.1877322    -1.0047013    -3.1101488
H          -0.5384115    -0.6550623    -1.5298788
O           3.9224414     1.0317291    -2.9473631
22
246_C8H10N2O2_0-2-8-9 (-75,) energy =    -570.8412717
N           1.3899055    -0.8245997    -1.5106705
H           2.1210057    -1.5220062    -1.4861959
C           1.7738013     0.4858435    -1.3905969
C           5.8329936     1.2249453    -0.1905289
H           6.8685177     1.4676591     0.0227779
N           5.4259021     1.3933665    -1.4807966
H           6.0723318     1.7153805    -2.1916413
C           4.1284428     1.1273617    -1.9595604
C           3.2000323     0.6816921    -0.9232809
C           3.6022478     0.4891948     0.3787458
C           2.6650215     0.0262714     1.4690814
H           2.5889859     0.7929739     2.2499832
H           3.0536752    -0.8803339     1.9500429
H           1.6616959    -0.1853129     1.0976432
C           4.9598990     0.7727552     0.7495233
H           5.2870043     0.6396604     1.7745285
O           1.0227846     1.4298897    -1.5874466
C           0.1007241    -1.1980543    -2.0698735
H          -0.3475497    -2.0118698    -1.4899433
H           0.1873323    -1.5121829    -3.1178108
H          -0.5431444    -0.3190898    -2.0211208
O           3.8791791     1.2563604    -3.1537453
22
246_C8H10N2O2_0-2-8-9 (-60,) energy =    -570.8398283
N           1.4715616    -0.7488038    -1.2896984
H           2.1405416    -1.4881664    -1.1232433
C           1.9614584     0.5325791    -1.3679674
C           5.9552241     1.2238401     0.0734744
H           6.9785571     1.4571129     0.3478662
N           5.6091210     1.4516421    -1.2238326
H           6.2892024     1.7960261    -1.8914584
C           4.3374616     1.2025462    -1.7791384
C           3.3526216     0.7209219    -0.8065641
C           3.6995018     0.4647286     0.5030358
C           2.7260064    -0.0386206     1.5448336
H           2.7375925     0.6255535     2.4173041
H           3.0253030    -1.0332484     1.9011443
H           1.7045071    -0.1050884     1.1709652
C           5.0383195     0.7301106     0.9483745
H           5.3149811     0.5535946     1.9815890
O           1.3053629     1.4681200    -1.8006713
C           0.2000815    -1.1046053    -1.9002706
H          -0.2528797    -1.9372764    -1.3536999
H           0.3115097    -1.3865111    -2.9556668
H          -0.4540733    -0.2335200    -1.8466705
O           4.1601995     1.3692612    -2.9797062
22
246_C8H10N2O2_0-2-8-9 (-45,) energy =    -570.8376069
N           1.5004869    -0.7194289    -1.1127011
H           2.1113760    -1.4673822    -0.8134533
C           2.0832804     0.4989981    -1.3828918
C           6.0002729     1.2647573     0.2411132
H           7.0069640     1.5119104     0.5615326
N           5.6943757     1.5256155    -1.0572314
H           6.3901902     1.8981614    -1.6928376
C           4.4502196     1.2599923    -1.6713557
C           3.4333566     0.7350891    -0.7482854
C           3.7470864     0.4446518     0.5665607
C           2.7606262    -0.1086129     1.5735643
H           2.8997649     0.3873075     2.5404886
H           2.9359763    -1.1803514     1.7411675
H           1.7243535     0.0135376     1.2599245
C           5.0621340     0.7258725     1.0660680
H           5.3046217     0.5260477     2.1034106
O           1.5096064     1.3593887    -2.0338330
C           0.2560901    -1.0921594    -1.7694954
H          -0.1949968    -1.9324990    -1.2345726
H           0.4057348    -1.3715792    -2.8209041
H          -0.4214462    -0.2373794    -1.7420058
O           4.3318650     1.4508759    -2.8737890
22
246_C8H10N2O2_0-2-8-9 (-30,) energy =    -570.8344515
N           1.4240279    -0.6496760    -1.0484613
H           1.9626097    -1.3969606    -0.6317162
C           2.1207814     0.4613506    -1.4839646
C           5.9849818     1.3091889     0.2468173
H           6.9800194     1.5712751     0.5911805
N           5.6926079     1.5959882    -1.0460818
H           6.3900339     1.9925196    -1.6653705
C           4.4672081     1.3095294    -1.6940897
C           3.4363994     0.7472834    -0.8000304
C           3.7451920     0.4301823     0.5144004
C           2.7661928    -0.1579951     1.5119038
H           2.9844084     0.2250160     2.5140414
H           2.8659148    -1.2513991     1.5663229
H           1.7290743     0.0672375     1.2644068
C           5.0443503     0.7289708     1.0409272
H           5.2735914     0.5094521     2.0770738
O           1.6416352     1.2165612    -2.3168752
C           0.2051151    -1.0362164    -1.7466911
H          -0.3004206    -1.8159899    -1.1705812
H           0.4016344    -1.4044594    -2.7623425
H          -0.4467051    -0.1648858    -1.8281464
O           4.3863620     1.5216153    -2.8944758
22
246_C8H10N2O2_0-2-8-9 (-15,) energy =    -570.8305204
N           1.3450528    -0.5976922    -0.9510422
H           1.8007411    -1.3243848    -0.4171208
C           2.1567669     0.3709461    -1.5223557
C           5.9685303     1.3573798     0.2799176
H           6.9516430     1.6442600     0.6387756
N           5.6746638     1.6580224    -1.0060540
H           6.3584768     2.0958531    -1.6127295
C           4.4638490     1.3434909    -1.6751656
C           3.4388839     0.7237160    -0.8040004
C           3.7572372     0.3971333     0.5105767
C           2.8017600    -0.2333221     1.5074249
H           3.0853217     0.0544855     2.5241257
H           2.8493376    -1.3312907     1.4712110
H           1.7663878     0.0615749     1.3340352
C           5.0398211     0.7303593     1.0528348
H           5.2680142     0.4971684     2.0859668
O           1.7742800     0.9795738    -2.5110344
C           0.1528520    -1.0085480    -1.6833335
H          -0.4257848    -1.6907174    -1.0544763
H           0.3909526    -1.5023930    -2.6347060
H          -0.4480589    -0.1261907    -1.9093097
O           4.4012971     1.5935826    -2.8679842
22
246_C8H10N2O2_0-2-8-9 (0,) energy =    -570.8267007
N           1.2697906    -0.5212811    -0.8935338
H           1.6142165    -1.1823551    -0.2145630
C           2.2062870     0.2611665    -1.5609949
C           5.9630495     1.3941282     0.2968850
H           6.9390706     1.6967595     0.6622571
N           5.6644860     1.7021452    -0.9831002
H           6.3270029     2.1874713    -1.5773178
C           4.4505696     1.3963956    -1.6566759
C           3.4539411     0.6864333    -0.8156051
C           3.7772407     0.3712326     0.5042713
C           2.8486541    -0.3035933     1.4987185
H           3.2016098    -0.1247611     2.5179110
H           2.8317948    -1.3949496     1.3656572
H           1.8243708     0.0659651     1.4204913
C           5.0435324     0.7392414     1.0583391
H           5.2728233     0.5005624     2.0897056
O           1.9498180     0.6594981    -2.6877424
C           0.1147180    -0.9766137    -1.6600496
H          -0.5533563    -1.5220969    -0.9876804
H           0.3935914    -1.6223031    -2.5030861
H          -0.4105167    -0.1109454    -2.0671869
O           4.3706659     1.7434044    -2.8230650
22
246_C8H10N2O2_0-2-8-9 (15,) energy =    -570.8305200
N           1.3938636    -0.4317541    -0.9171704
H           1.3048601     0.5573389    -0.7311793
C           2.6703223    -0.9176584    -1.1583504
C           6.1157422     1.0770439     0.5445157
H           7.0370209     1.5291143     0.8972884
N           6.2132555     0.2345704    -0.5095678
H           7.1013458     0.0661433    -0.9681380
C           5.1315714    -0.4328906    -1.1396318
C           3.8251171    -0.2231492    -0.4739682
C           3.7300376     0.6633072     0.5943900
C           2.4585728     0.9641711     1.3670289
H           2.7090219     1.2616163     2.3896442
H           1.7831568     0.1089620     1.4046406
H           1.9089931     1.8075537     0.9245386
C           4.8990368     1.3107232     1.1085379
H           4.8190086     1.9769735     1.9591372
O           2.8191605    -1.9377755    -1.8151450
C           0.2837877    -1.0377328    -1.6430558
H          -0.6523147    -0.6204168    -1.2619962
H           0.2948543    -2.1158917    -1.4752589
H           0.3448221    -0.8682488    -2.7262201
O           5.3805526    -1.0775912    -2.1454229
22
246_C8H10N2O2_0-2-8-9 (30,) energy =    -570.8344515
N           1.4435475    -0.3828391    -1.0319554
H           1.4282641     0.6260974    -0.9687591
C           2.6828949    -0.9917049    -1.0850494
C           6.1077329     1.1106396     0.4952483
H           7.0273007     1.5831969     0.8245849
N           6.1991815     0.2761948    -0.5699479
H           7.0779194     0.1428046    -1.0569642
C           5.1173302    -0.4122647    -1.1693084
C           3.8343778    -0.2405049    -0.4603991
C           3.7371737     0.6334897     0.6121371
C           2.4688522     0.8898869     1.4027212
H           2.7184925     1.0747232     2.4525355
H           1.7646820     0.0600698     1.3466126
H           1.9523779     1.7902733     1.0407808
C           4.9036909     1.3103759     1.0972817
H           4.8317739     1.9684969     1.9552113
O           2.8092522    -2.1207417    -1.5355652
C           0.3198615    -1.0097595    -1.7153075
H          -0.6011854    -0.4965622    -1.4257864
H           0.2623665    -2.0567165    -1.4131715
H           0.4237514    -0.9810101    -2.8080825
O           5.3310808    -1.0409155    -2.1947629
22
246_C8H10N2O2_0-2-8-9 (45,) energy =    -570.8376070
N           1.4776674    -0.3088901    -1.1233194
H           1.5385629     0.6989499    -1.1755963
C           2.6576066    -1.0035628    -0.9735469
C           6.0972284     1.1508237     0.4728367
H           7.0224113     1.6315883     0.7728936
N           6.1639131     0.3265066    -0.6058569
H           7.0306959     0.2040298    -1.1164053
C           5.0727682    -0.3749164    -1.1647794
C           3.8176461    -0.2134013    -0.4160271
C           3.7392166     0.6435877     0.6660110
C           2.4825164     0.8729979     1.4792600
H           2.7327146     0.9150904     2.5450395
H           1.7318794     0.0988692     1.3230009
H           2.0254429     1.8393104     1.2247145
C           4.9134442     1.3327103     1.1182125
H           4.8632050     1.9837455     1.9833443
O           2.7370189    -2.2001228    -1.2081765
C           0.3346150    -0.9454000    -1.7614324
H          -0.5685712    -0.3715882    -1.5360637
H           0.2324632    -1.9561639    -1.3635011
H           0.4523412    -1.0208655    -2.8506496
O           5.2434343    -1.0086062    -2.1970649
22
246_C8H10N2O2_0-2-8-9 (60,) energy =    -570.8398283
N           1.4639867    -0.3681066    -1.2966924
H           1.5957918     0.6184570    -1.4733891
C           2.5745845    -1.0934422    -0.9381112
C           6.0612805     1.0975461     0.3061589
H           6.9983382     1.5828862     0.5577184
N           6.0774132     0.2763857    -0.7801335
H           6.9205276     0.1561225    -1.3292560
C           4.9648628    -0.4332240    -1.2763402
C           3.7525519    -0.2696971    -0.4692478
C           3.7199871     0.5777040     0.6179063
C           2.4958366     0.7885915     1.4800946
H           2.7438705     0.6006088     2.5315782
H           1.6641836     0.1435111     1.1974857
H           2.1568714     1.8311666     1.4171357
C           4.9122825     1.2734048     1.0124072
H           4.9029434     1.9243323     1.8792627
O           2.5967289    -2.3150907    -0.9363763
C           0.3015084    -1.0164373    -1.8835032
H          -0.6009233    -0.4457915    -1.6442086
H           0.2243374    -2.0175571    -1.4576251
H           0.3867462    -1.1122542    -2.9740539
O           5.0746402    -1.0810325    -2.3102105
22
246_C8H10N2O2_0-2-8-9 (75,) energy =    -570.8412717
N           1.3885489    -0.4342944    -1.5221202
H           1.6136753     0.5048803    -1.8200416
C           2.3996949    -1.1694288    -0.9598010
C           5.9979122     0.9386981     0.0755783
H           6.9581013     1.4028659     0.2738364
N           5.9314446     0.1315166    -1.0212019
H           6.7409073    -0.0054022    -1.6152469
C           4.7785153    -0.5535164    -1.4511499
C           3.6230449    -0.3644450    -0.5773437
C           3.6707477     0.4624115     0.5218083
C           2.4909649     0.6786924     1.4398977
H           2.7348372     0.3349937     2.4527159
H           1.5969368     0.1514581     1.1050161
H           2.2538736     1.7475489     1.5150310
C           4.8981697     1.1292682     0.8532254
H           4.9544058     1.7720420     1.7244447
O           2.3156492    -2.3667498    -0.7287764
C           0.1955206    -1.0619322    -2.0670283
H          -0.6975895    -0.4901001    -1.7933179
H           0.1304571    -2.0639940    -1.6413901
H           0.2436494    -1.1471842    -3.1600828
O           4.8082199    -1.2100229    -2.4869919
22
246_C8H10N2O2_0-2-8-9 (90,) energy =    -570.8425573
N           1.4666961    -0.3060909    -1.5040523
H           1.8260954     0.5089688    -1.9827423
C           2.3534361    -1.0076921    -0.7342890
C           5.9749410     1.0861674     0.2340003
H           6.9338080     1.5621593     0.4089014
N           5.8701152     0.3372929    -0.9006559
H           6.6506656     0.2556380    -1.5418420
C           4.7097579    -0.3468512    -1.3100544
C           3.6054291    -0.2392273    -0.3676603
C           3.6879413     0.5268843     0.7722606
C           2.5210682     0.6726607     1.7200504
H           2.8704849     0.7469789     2.7552030
H           1.8364531    -0.1749503     1.6474315
H           1.9553253     1.5877070     1.5009367
C           4.9129772     1.2061885     1.0775545
H           5.0010092     1.8024956     1.9784768
O           2.1219833    -2.1276201    -0.2979173
C           0.2862565    -0.9508647    -2.0600516
H          -0.4639072    -0.1919302    -2.2991856
H          -0.1148476    -1.6354992    -1.3112239
H           0.5176458    -1.5276570    -2.9650462
O           4.6936897    -0.9454316    -2.3835506
22
246_C8H10N2O2_0-2-8-9 (105,) energy =    -570.8449292
N           1.5465012    -0.3332597    -1.6377126
H           2.0728320     0.2444542    -2.2818534
C           2.2851148    -0.9408714    -0.6591010
C           5.9641073     1.0991110     0.2173711
H           6.9303085     1.5697857     0.3634889
N           5.8013876     0.3982207    -0.9409390
H           6.5377441     0.3660718    -1.6365945
C           4.6136090    -0.2468275    -1.3250066
C           3.5714709    -0.2230111    -0.3093716
C           3.7070227     0.5093048     0.8501062
C           2.5915714     0.6282343     1.8604820
H           2.9943394     0.6739604     2.8777825
H           1.9026791    -0.2150121     1.7943551
H           2.0235200     1.5532710     1.6938827
C           4.9447075     1.1812069     1.1159857
H           5.0759052     1.7438578     2.0331382
O           1.8873796    -1.9145423    -0.0288927
C           0.3628293    -0.9935137    -2.1721042
H          -0.2371982    -0.2629605    -2.7211922
H          -0.2203497    -1.3892765    -1.3391967
H           0.6179786    -1.8269117    -2.8397697
O           4.5236828    -0.7524610    -2.4451942
22
246_C8H10N2O2_0-2-8-9 (120,) energy =    -570.8487071
N           1.8790792    -0.1589176    -1.7421255
H           2.5739025     0.2146076    -2.3813628
C           2.3977927    -0.6418572    -0.5715802
C           5.9878713     1.3629388     0.6801043
H           6.9330289     1.8339885     0.9270885
N           5.9090126     0.7674672    -0.5420961
H           6.6798143     0.8233029    -1.1981061
C           4.7566932     0.1550786    -1.0587285
C           3.6612088     0.0452698    -0.1084930
C           3.7071587     0.6899699     1.1136883
C           2.5364238     0.6792353     2.0675522
H           2.7168241     1.3468723     2.9149793
H           2.3580950    -0.3335881     2.4397931
H           1.6135245     0.9909638     1.5679474
C           4.9096825     1.3537739     1.5131785
H           4.9696738     1.8413622     2.4791093
O           1.8174585    -1.4638155     0.1324910
C           0.7182288    -0.8046018    -2.3387676
H           0.2765207    -0.1319358    -3.0789736
H          -0.0108781    -1.0086875    -1.5530822
H           0.9724840    -1.7560983    -2.8251410
O           4.7463512    -0.2163468    -2.2373400
22
246_C8H10N2O2_0-2-8-9 (135,) energy =    -570.8526132
N           1.8612378    -0.2339300    -1.8586021
H           2.6179947     0.0046482    -2.4948698
C           2.2640899    -0.5554670    -0.5946873
C           5.9723620     1.2477862     0.6447403
H           6.9426061     1.6664367     0.8886362
N           5.8353530     0.7223131    -0.6028479
H           6.5924152     0.7712344    -1.2752234
C           4.6488837     0.1819089    -1.1163680
C           3.5626747     0.0744308    -0.1506280
C           3.6757369     0.6444120     1.1078741
C           2.5537291     0.6371454     2.1183503
H           2.7416014     1.3786942     2.9012314
H           2.4689308    -0.3503427     2.5832221
H           1.5848026     0.8369677     1.6566687
C           4.9157224     1.2378916     1.5038837
H           5.0204340     1.6708610     2.4917783
O           1.5706443    -1.2105859     0.1828191
C           0.6687021    -0.8518964    -2.4159729
H           0.3739897    -0.3056763    -3.3159203
H          -0.1369462    -0.8006192    -1.6810490
H           0.8252641    -1.9083953    -2.6737590
O           4.6153395    -0.1417315    -2.3108521
22
246_C8H10N2O2_0-2-8-9 (150,) energy =    -570.8552688
N           1.9357942    -0.2891780    -1.9231588
H           2.7284221    -0.1051068    -2.5346850
C           2.2321504    -0.4288953    -0.6019935
C           5.9906710     1.2515914     0.6878023
H           6.9695624     1.6420663     0.9435706
N           5.8293716     0.8028225    -0.5845338
H           6.5803888     0.8694877    -1.2621894
C           4.6340760     0.2991929    -1.1127227
C           3.5422792     0.1732389    -0.1518757
C           3.6904706     0.6526926     1.1447729
C           2.5906414     0.6153194     2.1790928
H           2.8552616     1.2452092     3.0343759
H           2.4272736    -0.4085248     2.5277917
H           1.6340230     0.9429981     1.7676257
C           4.9446260     1.2005849     1.5580850
H           5.0682120     1.5683439     2.5697840
O           1.4508396    -0.9450943     0.2000556
C           0.7384877    -0.9038684    -2.4681816
H           0.5570693    -0.4992884    -3.4673634
H          -0.1133216    -0.6744215    -1.8241378
H           0.8239114    -1.9972357    -2.5356547
O           4.6117147     0.0144697    -2.3190692
22
246_C8H10N2O2_0-2-8-9 (165,) energy =    -570.8564698
N           1.8648927    -0.4620573    -1.9898143
H           2.6623505    -0.3287745    -2.6079262
C           2.0986346    -0.3746306    -0.6557547
C           5.9584935     1.1600715     0.5399980
H           6.9556579     1.5191867     0.7698460
N           5.7350823     0.7616318    -0.7381493
H           6.4645070     0.8167100    -1.4400173
C           4.5140425     0.2870757    -1.2322485
C           3.4422326     0.1822300    -0.2435339
C           3.6619003     0.6007158     1.0674117
C           2.6112309     0.5641451     2.1518613
H           2.9758379     1.0809550     3.0454413
H           2.3572257    -0.4671455     2.4112364
H           1.6756061     1.0192970     1.8215427
C           4.9467092     1.0975214     1.4487560
H           5.1198017     1.4214062     2.4680325
O           1.2473153    -0.7010116     0.1771308
C           0.6270568    -1.0384919    -2.4781923
H           0.5735356    -0.8891207    -3.5594550
H          -0.2286526    -0.5505895    -2.0029418
H           0.5595254    -2.1128575    -2.2613952
O           4.4636154     0.0072264    -2.4398781
22
246_C8H10N2O2_0-2-8-9 (180,) energy =    -570.8567295
N           1.8829100    -0.5940410    -2.0478830
H           2.6834910    -0.4740035    -2.6640476
C           2.0395098    -0.2750688    -0.7401438
C           5.9346063     1.1800704     0.4543810
H           6.9337384     1.5366215     0.6796565
N           5.6870425     0.8367035    -0.8345535
H           6.4055842     0.9121990    -1.5456995
C           4.4650961     0.3567359    -1.3209642
C           3.4016015     0.2334564    -0.3241944
C           3.6510499     0.5851444     1.0024749
C           2.6270669     0.4965170     2.1093579
H           3.0673250     0.8282481     3.0551903
H           2.2517954    -0.5234018     2.2199687
H           1.7476658     1.1040907     1.8839070
C           4.9434818     1.0641755     1.3803621
H           5.1374233     1.3374409     2.4105746
O           1.1125165    -0.3953504     0.0681497
C           0.6098897    -1.0891133    -2.5326504
H           0.6952099    -1.2790320    -3.6052541
H          -0.1902330    -0.3605260    -2.3585191
H           0.3262493    -2.0178539    -2.0241904
O           4.4102449     0.0888335    -2.5314763
