23
193_C8H11NO2S_0-6-11-12 (-165,) energy =    -914.7847907
C           0.3035514    -0.4545849    -1.2053381
H           0.5922119    -0.8907931    -2.1561197
C          -0.9947668     0.0070677    -0.9969960
H          -1.7231069    -0.0564166    -1.8003250
C          -1.3580440     0.5462995     0.2397565
H          -2.3723095     0.9018695     0.3987183
C           1.2318197    -0.3736389    -0.1624307
C          -0.4203321     0.6313939     1.2700329
H          -0.7006753     1.0544944     2.2305867
C           0.8864335     0.1823607     1.0703564
H           1.6315438     0.2569345     1.8540596
S           2.9201901    -0.8599741    -0.5533274
N           3.6095263    -1.0433937     0.9916768
C           5.0052647    -0.5971323     1.1047956
H           5.1166319     0.3748179     0.6261504
H           5.7135383    -1.3058486     0.6516515
H           5.2354827    -0.5028345     2.1708549
C           3.3480001    -2.3522790     1.6049327
H           2.2844230    -2.5921259     1.5362724
H           3.6176028    -2.2872972     2.6637884
H           3.9217001    -3.1609971     1.1330841
O           2.8484011    -2.1467406    -1.2607698
O           3.6054170     0.2749491    -1.1829681
23
193_C8H11NO2S_0-6-11-12 (-150,) energy =    -914.7863095
C           0.2938462    -0.5863886    -1.1214725
H           0.5778095    -1.1255504    -2.0189665
C          -1.0259007    -0.1902386    -0.9050349
H          -1.7830790    -0.4124725    -1.6514564
C          -1.3720372     0.4854595     0.2669311
H          -2.4018023     0.7893502     0.4335035
C           1.2570569    -0.3010585    -0.1506874
C          -0.3980221     0.7725365     1.2263562
H          -0.6682529     1.2992125     2.1372445
C           0.9268721     0.3896490     1.0177908
H           1.6958455     0.6081359     1.7503760
S           2.9672571    -0.6930769    -0.5460811
N           3.6036217    -1.0354166     0.9963287
C           5.0250261    -0.6972634     1.1584576
H           5.2093533     0.2977265     0.7548871
H           5.6904030    -1.4188058     0.6620872
H           5.2438026    -0.6970274     2.2310320
C           3.2513451    -2.3710994     1.4945781
H           2.1766030    -2.5375338     1.3883459
H           3.4995881    -2.4090273     2.5598614
H           3.7868925    -3.1723487     0.9677375
O           2.9523965    -1.8888772    -1.4022441
O           3.6480429     0.5218434    -1.0084416
23
193_C8H11NO2S_0-6-11-12 (-135,) energy =    -914.7872684
C           0.3250950    -0.7118242    -1.0253452
H           0.6180687    -1.3414290    -1.8585579
C          -1.0117176    -0.3782482    -0.8001202
H          -1.7796073    -0.7493596    -1.4728147
C          -1.3591237     0.4275206     0.2851980
H          -2.4008160     0.6834077     0.4583592
C           1.2994118    -0.2316666    -0.1494532
C          -0.3719817     0.9078510     1.1510147
H          -0.6448571     1.5358745     1.9943278
C           0.9665281     0.5862996     0.9338069
H           1.7438704     0.9506496     1.5966305
S           3.0251095    -0.5663770    -0.5266611
N           3.6056725    -1.0528961     1.0011553
C           5.0376846    -0.7929431     1.2102564
H           5.2709377     0.2232900     0.8935539
H           5.6804074    -1.4998756     0.6650992
H           5.2375716    -0.8898623     2.2820667
C           3.1918289    -2.4094951     1.3799905
H           2.1130568    -2.5211237     1.2448487
H           3.4182354    -2.5453457     2.4420657
H           3.7049952    -3.1861968     0.7966792
O           3.0578121    -1.6733807    -1.4951450
O           3.7065814     0.6953575    -0.8361529
23
193_C8H11NO2S_0-6-11-12 (-120,) energy =    -914.7876081
C           0.3552741    -0.8126065    -0.9007547
H           0.6662108    -1.5218397    -1.6602388
C          -0.9935834    -0.5359533    -0.6667019
H          -1.7559073    -1.0416383    -1.2523896
C          -1.3585124     0.3881842     0.3130001
H          -2.4088702     0.6010862     0.4919268
C           1.3208773    -0.1549569    -0.1391561
C          -0.3785561     1.0453017     1.0641745
H          -0.6663776     1.7676445     1.8226624
C           0.9702538     0.7797262     0.8389480
H           1.7426302     1.2848640     1.4091239
S           3.0582360    -0.4529272    -0.4882062
N           3.5918378    -1.0776265     1.0076097
C           5.0210487    -0.8546852     1.2720812
H           5.2715252     0.1836260     1.0557748
H           5.6705783    -1.5159888     0.6794828
H           5.1942622    -1.0512254     2.3348174
C           3.1570146    -2.4572961     1.2553643
H           2.0786244    -2.5416563     1.0984315
H           3.3672737    -2.6915665     2.3034457
H           3.6687566    -3.1852387     0.6108756
O           3.1288685    -1.4700009    -1.5488085
O           3.7388283     0.8356479    -0.6546086
23
193_C8H11NO2S_0-6-11-12 (-105,) energy =    -914.7875412
C           0.3857457    -0.8948333    -0.7548573
H           0.7089682    -1.6791797    -1.4309334
C          -0.9686642    -0.6559317    -0.5120940
H          -1.7197392    -1.2744153    -0.9951105
C          -1.3544867     0.3785322     0.3415457
H          -2.4092190     0.5630707     0.5260779
C           1.3366967    -0.0884163    -0.1289325
C          -0.3902899     1.1843397     0.9551537
H          -0.6945956     1.9943932     1.6117632
C           0.9641084     0.9551442     0.7220448
H           1.7254212     1.5774718     1.1801474
S           3.0821888    -0.3700075    -0.4474930
N           3.5743662    -1.1313352     0.9999596
C           4.9910620    -0.9200621     1.3330546
H           5.2348011     0.1366343     1.2262575
H           5.6689934    -1.5145100     0.7025566
H           5.1313601    -1.2159976     2.3774504
C           3.1495806    -2.5317010     1.1046581
H           2.0759252    -2.6107984     0.9162332
H           3.3380890    -2.8619679     2.1307818
H           3.6841154    -3.1912307     0.4071475
O           3.1808221    -1.2939599    -1.5877540
O           3.7664142     0.9269562    -0.4781515
23
193_C8H11NO2S_0-6-11-12 (-90,) energy =    -914.7868952
C           0.5760133     0.5123558     1.3125354
H           1.0618863     0.8304504     2.2285572
C          -0.4758314     1.2418892     0.7603549
H          -0.8148735     2.1515664     1.2476852
C          -1.0989791     0.7992285    -0.4095844
H          -1.9195374     1.3710520    -0.8341031
C           0.9990932    -0.6547505     0.6727772
C          -0.6828063    -0.3827065    -1.0253403
H          -1.1819082    -0.7360399    -1.9231222
C           0.3657413    -1.1248987    -0.4795087
H           0.6741739    -2.0672810    -0.9195356
S           2.3172710    -1.6203951     1.4200687
N           3.7108838    -0.9323736     0.7110236
C           3.9498567    -1.3585038    -0.6718391
H           3.0564321    -1.1837978    -1.2762656
H           4.2336141    -2.4170474    -0.7488464
H           4.7554862    -0.7380573    -1.0759910
C           4.9083194    -0.9953209     1.5627943
H           4.6556243    -0.6629807     2.5691891
H           5.6510021    -0.3135044     1.1368237
H           5.3422692    -2.0050927     1.6129352
O           2.3776530    -1.2910184     2.8479001
O           2.1469620    -3.0126440     0.9776022
23
193_C8H11NO2S_0-6-11-12 (-75,) energy =    -914.7875779
C           0.7077001     0.5497633     1.1824006
H           1.2973804     0.9260886     2.0115301
C          -0.3332867     1.3003867     0.6401416
H          -0.5579864     2.2825256     1.0461338
C          -1.0909614     0.7884046    -0.4179228
H          -1.9027919     1.3776911    -0.8353411
C           0.9811321    -0.7119012     0.6479079
C          -0.8150938    -0.4785744    -0.9339052
H          -1.4117536    -0.8789336    -1.7485463
C           0.2251279    -1.2411020    -0.3982783
H           0.4458573    -2.2366150    -0.7683159
S           2.2937779    -1.6999190     1.3750676
N           3.6837051    -0.9077421     0.7781001
C           3.9566023    -1.1825850    -0.6370250
H           3.0592376    -0.9967668    -1.2326483
H           4.2942922    -2.2133820    -0.8121590
H           4.7331639    -0.4865930    -0.9688165
C           4.8658150    -1.0426343     1.6422351
H           4.5858207    -0.8333767     2.6743997
H           5.6005697    -0.3009749     1.3133943
H           5.3219906    -2.0422072     1.5852922
O           2.2942721    -1.4839393     2.8257237
O           2.1824297    -3.0589066     0.8232315
23
193_C8H11NO2S_0-6-11-12 (-60,) energy =    -914.7875755
C           0.8482309     0.5690716     1.0059396
H           1.5550503     0.9913788     1.7122035
C          -0.2025621     1.3303289     0.4990017
H          -0.3199134     2.3635049     0.8132270
C          -1.1048374     0.7657101    -0.4084076
H          -1.9232725     1.3642065    -0.7989872
C           0.9851109    -0.7575012     0.5877477
C          -0.9596190    -0.5619482    -0.8125521
H          -1.6628767    -0.9994007    -1.5153710
C           0.0914327    -1.3348176    -0.3139569
H           0.2256142    -2.3693865    -0.6108310
S           2.2943050    -1.7727820     1.2841638
N           3.6769693    -0.8855521     0.8222846
C           4.0095508    -1.0180818    -0.6011163
H           3.1251221    -0.8153561    -1.2104845
H           4.3957875    -2.0148164    -0.8548696
H           4.7669153    -0.2650633    -0.8397750
C           4.8306573    -1.0680090     1.7156706
H           4.5061679    -0.9673305     2.7511064
H           5.5523026    -0.2772696     1.4875687
H           5.3209122    -2.0437439     1.5819599
O           2.2335967    -1.6953557     2.7476240
O           2.2455624    -3.0799682     0.6109373
23
193_C8H11NO2S_0-6-11-12 (-45,) energy =    -914.7870690
C           0.9684317     0.5814459     0.8175745
H           1.7781747     1.0273368     1.3846517
C          -0.0966170     1.3535119     0.3560897
H          -0.1213784     2.4184909     0.5688877
C          -1.1278686     0.7606067    -0.3779405
H          -1.9557191     1.3673617    -0.7344221
C           0.9878185    -0.7858841     0.5304282
C          -1.0956719    -0.6064674    -0.6582638
H          -1.8954463    -1.0650876    -1.2326521
C          -0.0317671    -1.3893877    -0.2073611
H           0.0208108    -2.4504597    -0.4259208
S           2.3010682    -1.8326916     1.1740173
N           3.6745340    -0.8747290     0.8537962
C           4.0808037    -0.8855278    -0.5570305
H           3.2182435    -0.6769403    -1.1948083
H           4.5235852    -1.8435901    -0.8615707
H           4.8135897    -0.0856326    -0.7017842
C           4.7881611    -1.0850800     1.7906173
H           4.4083553    -1.0788812     2.8118373
H           5.4883454    -0.2535544     1.6623065
H           5.3225657    -2.0289617     1.6077372
O           2.1906655    -1.9086841     2.6351183
O           2.3068489    -3.0684085     0.3758550
23
193_C8H11NO2S_0-6-11-12 (-30,) energy =    -914.7859470
C           1.0497433     0.5774669     0.6275171
H           1.9369978     1.0272967     1.0585612
C          -0.0288307     1.3599335     0.2133208
H           0.0181365     2.4396935     0.3232278
C          -1.1614687     0.7595705    -0.3406959
H          -1.9986172     1.3739600    -0.6603739
C           0.9778933    -0.8089519     0.4771725
C          -1.2179558    -0.6278388    -0.4917179
H          -2.0952113    -1.0943343    -0.9306690
C          -0.1431772    -1.4204056    -0.0904403
H          -0.1607957    -2.4967618    -0.2244091
S           2.3030842    -1.8871848     1.0428119
N           3.6666443    -0.8820569     0.8674758
C           4.1637502    -0.7974520    -0.5118595
H           3.3380183    -0.5821094    -1.1941897
H           4.6597934    -1.7212757    -0.8384364
H           4.8750186     0.0329075    -0.5625392
C           4.7218615    -1.1029413     1.8668913
H           4.2752326    -1.1668906     2.8583697
H           5.3961790    -0.2414061     1.8301483
H           5.3036158    -2.0157859     1.6722423
O           2.1523826    -2.1261895     2.4828988
O           2.3557702    -3.0297823     0.1185127
23
193_C8H11NO2S_0-6-11-12 (-15,) energy =    -914.7845009
C           1.1108404     0.5638250     0.4444490
H           2.0508627     1.0111265     0.7462411
C           0.0159122     1.3539079     0.0875485
H           0.1085818     2.4362395     0.1024911
C          -1.1893072     0.7581782    -0.2856993
H          -2.0382618     1.3778552    -0.5608268
C           0.9809153    -0.8251727     0.4221523
C          -1.3045436    -0.6343715    -0.3122382
H          -2.2399967    -1.0992195    -0.6100871
C          -0.2165429    -1.4338675     0.0317490
H          -0.2883832    -2.5157934    -0.0104491
S           2.3292235    -1.9275537     0.8795002
N           3.6770482    -0.8901729     0.8531857
C           4.2833061    -0.7349239    -0.4756017
H           3.5111402    -0.5205896    -1.2177534
H           4.8362632    -1.6287930    -0.7933099
H           4.9677509     0.1183634    -0.4350896
C           4.6485670    -1.1016723     1.9350850
H           4.1222479    -1.2100147     2.8823436
H           5.2914203    -0.2166246     1.9787190
H           5.2781486    -1.9879997     1.7699426
O           2.1461980    -2.3449512     2.2745593
O           2.4300244    -2.9452524    -0.1763153
23
193_C8H11NO2S_0-6-11-12 (0,) energy =    -914.7832404
C           1.1647120     0.5466701     0.2870183
H           2.1448590     0.9840321     0.4378022
C           0.0477611     1.3472086     0.0345378
H           0.1645885     2.4256530    -0.0253098
C          -1.2087323     0.7669576    -0.1375386
H          -2.0743644     1.3938412    -0.3327178
C           1.0049573    -0.8361162     0.3652944
C          -1.3562082    -0.6210343    -0.0588858
H          -2.3341773    -1.0744400    -0.1926993
C          -0.2497068    -1.4300497     0.1877059
H          -0.3563265    -2.5087976     0.2426266
S           2.3835540    -1.9572302     0.6589263
N           3.7170235    -0.9158541     0.7851281
C           4.4954677    -0.7488542    -0.4486459
H           3.8287507    -0.5973614    -1.2988365
H           5.1377414    -1.6141679    -0.6602958
H           5.1210461     0.1421485    -0.3323796
C           4.5275987    -1.0490247     2.0021046
H           3.8780652    -1.1665762     2.8681959
H           5.1140061    -0.1311699     2.1142581
H           5.2155356    -1.9052645     1.9560481
O           2.1826161    -2.5821996     1.9714796
O           2.5229060    -2.7957314    -0.5388436
23
193_C8H11NO2S_0-6-11-12 (15,) energy =    -914.7845010
C           1.1608352     0.5722102     0.1229472
H           2.1486714     1.0148393     0.0680161
C           0.0130887     1.3673289     0.1544132
H           0.1098295     2.4492045     0.1337137
C          -1.2499256     0.7772301     0.2120744
H          -2.1396405     1.4003840     0.2348291
C           1.0250944    -0.8162009     0.1495592
C          -1.3725276    -0.6144929     0.2468014
H          -2.3551089    -1.0745111     0.2994452
C          -0.2350048    -1.4187602     0.2262455
H          -0.3190718    -2.4993795     0.2784706
S           2.4427619    -1.9251348     0.0979824
N           3.7386723    -0.8805399     0.4515840
C           4.9623237    -1.1206603    -0.3260369
H           4.7066273    -1.2597473    -1.3754623
H           5.5215911    -1.9989524     0.0275580
H           5.5970832    -0.2346201    -0.2236630
C           3.9711129    -0.6864070     1.8889687
H           3.0301174    -0.4568123     2.3936992
H           4.6432235     0.1693138     2.0080601
H           4.4186195    -1.5683986     2.3659988
O           2.2565190    -2.9120352     1.1712335
O           2.6353502    -2.3828930    -1.2831196
23
193_C8H11NO2S_0-6-11-12 (30,) energy =    -914.7859469
C           1.1109895     0.5817517    -0.0548381
H           2.0820153     1.0223191    -0.2507351
C          -0.0343686     1.3724458     0.0456725
H           0.0448424     2.4492880    -0.0739177
C          -1.2750676     0.7840434     0.3000056
H          -2.1635987     1.4046955     0.3761161
C           0.9957429    -0.8007138     0.1046218
C          -1.3756394    -0.5993738     0.4641204
H          -2.3391995    -1.0562872     0.6706442
C          -0.2373719    -1.3998768     0.3753406
H          -0.2945046    -2.4726905     0.5257047
S           2.4171610    -1.8903913    -0.0709250
N           3.6930759    -0.8792437     0.4291316
C           4.9708431    -1.1228594    -0.2557675
H           4.7971800    -1.2116266    -1.3274763
H           5.4774482    -2.0298229     0.1053143
H           5.6166144    -0.2596838    -0.0654923
C           3.8146986    -0.7605813     1.8878928
H           2.8409968    -0.5298602     2.3265885
H           4.4924586     0.0717118     2.1021292
H           4.2040745    -1.6755588     2.3541110
O           2.2220472    -3.0101439     0.8622019
O           2.6450659    -2.1644892    -1.4945142
23
193_C8H11NO2S_0-6-11-12 (45,) energy =    -914.7870690
C           1.0799879     0.5832850    -0.2576246
H           2.0107942     1.0175751    -0.6055606
C          -0.0653680     1.3635316    -0.1069765
H          -0.0302757     2.4230417    -0.3442466
C          -1.2539128     0.7856489     0.3482010
H          -2.1433778     1.3990502     0.4628580
C           1.0190139    -0.7767300     0.0572334
C          -1.3008261    -0.5742091     0.6598846
H          -2.2238908    -1.0211205     1.0178236
C          -0.1593009    -1.3650101     0.5194121
H          -0.1692062    -2.4203845     0.7694031
S           2.4505000    -1.8351852    -0.1980948
N           3.6973231    -0.8661114     0.4449749
C           5.0152669    -1.0968130    -0.1648973
H           4.9139295    -1.1161602    -1.2495790
H           5.4798099    -2.0348282     0.1731551
H           5.6615369    -0.2609119     0.1210291
C           3.7231376    -0.8424018     1.9127978
H           2.7253439    -0.6206466     2.2994597
H           4.3963272    -0.0376051     2.2240513
H           4.0677955    -1.7919100     2.3444559
O           2.2446481    -3.0514539     0.6034071
O           2.7232353    -1.9464405    -1.6354618
23
193_C8H11NO2S_0-6-11-12 (60,) energy =    -914.7875754
C           1.0139584     0.5653552    -0.4637605
H           1.8819634     0.9738467    -0.9701772
C          -0.1304293     1.3346850    -0.2659223
H          -0.1585246     2.3602238    -0.6229141
C          -1.2400505     0.7879101     0.3868293
H          -2.1302284     1.3926196     0.5368300
C           1.0328724    -0.7512201     0.0049553
C          -1.2093748    -0.5299570     0.8443429
H          -2.0730924    -0.9535051     1.3488123
C          -0.0669575    -1.3107661     0.6548153
H          -0.0181955    -2.3380878     0.9993337
S           2.4757930    -1.7777832    -0.3019368
N           3.6917924    -0.8769072     0.4855126
C           5.0381494    -1.0686524    -0.0732008
H           4.9932449    -0.9947033    -1.1595004
H           5.4798986    -2.0365009     0.2069008
H           5.6735736    -0.2662707     0.3148413
C           3.6422320    -0.9769697     1.9487730
H           2.6281510    -0.7731376     2.3018480
H           4.3060950    -0.2103136     2.3601318
H           3.9552941    -1.9637780     2.3166319
O           2.2487183    -3.0697009     0.3641014
O           2.8003228    -1.7330775    -1.7316728
23
193_C8H11NO2S_0-6-11-12 (75,) energy =    -914.7875780
C           0.9107107     0.5536371    -0.6698635
H           1.6963852     0.9144805    -1.3250793
C          -0.2327810     1.3128517    -0.4308243
H          -0.3413020     2.2862990    -0.9004391
C          -1.2404774     0.8205309     0.4045694
H          -2.1307983     1.4164434     0.5856278
C           1.0320794    -0.6966461    -0.0580569
C          -1.1119579    -0.4354189     0.9992475
H          -1.9006575    -0.8207089     1.6391195
C           0.0290389    -1.2064132     0.7666533
H           0.1430602    -2.1939565     1.2007681
S           2.4851374    -1.6963253    -0.4004400
N           3.6753267    -0.8897474     0.5208217
C           5.0406086    -1.0393610    -0.0044808
H           5.0384612    -0.8510703    -1.0778346
H           5.4632048    -2.0367170     0.1883387
H           5.6673727    -0.2899152     0.4890330
C           3.5711454    -1.1360610     1.9634130
H           2.5506594    -0.9402421     2.3022668
H           4.2374131    -0.4321587     2.4714933
H           3.8485211    -2.1625462     2.2402522
O           2.2301053    -3.0443107     0.1302776
O           2.8624335    -1.5091617    -1.8053141
23
193_C8H11NO2S_0-6-11-12 (90,) energy =    -914.7868954
C           0.8556934     0.4939385    -0.8327414
H           1.5644314     0.8009209    -1.5941940
C          -0.3068664     1.2240697    -0.5899418
H          -0.5084946     2.1227113    -1.1659082
C          -1.2147765     0.7960434     0.3824371
H          -2.1202465     1.3678539     0.5659695
C           1.0996616    -0.6590741    -0.0834721
C          -0.9713207    -0.3722111     1.1070935
H          -1.6880501    -0.7148653     1.8479319
C           0.1864388    -1.1147929     0.8696169
H           0.3711269    -2.0473229     1.3921895
S           2.5711344    -1.6267927    -0.4400228
N           3.7270532    -0.9165942     0.5977603
C           5.1066293    -0.9826907     0.0928071
H           5.1254599    -0.6756712    -0.9524491
H           5.5448589    -1.9878154     0.1831462
H           5.7068264    -0.2823491     0.6821067
C           3.5948113    -1.3156901     2.0027455
H           2.5725583    -1.1401675     2.3465297
H           4.2614768    -0.6795584     2.5928986
H           3.8544066    -2.3695811     2.1727355
O           2.2943949    -3.0126666    -0.0328583
O           3.0040712    -1.3208326    -1.8074112
23
193_C8H11NO2S_0-6-11-12 (105,) energy =    -914.7875412
C           0.8318723     0.2249888    -1.0487479
H           1.4952110     0.1799874    -1.9058986
C          -0.1949677     1.1685086    -0.9724006
H          -0.3287759     1.8855088    -1.7773549
C          -1.0500011     1.1840326     0.1304716
H          -1.8493256     1.9179543     0.1852836
C           0.9868279    -0.6906775    -0.0076202
C          -0.8881044     0.2544254     1.1625236
H          -1.5612800     0.2636944     2.0149755
C           0.1334079    -0.6909292     1.0985755
H           0.2665685    -1.4270191     1.8841834
S           2.2901740    -1.9236089    -0.1010525
N           3.4295089    -1.2999881     1.0079299
C           4.1863445    -0.1526722     0.4948332
H           3.4995002     0.6036131     0.1065406
H           4.8955417    -0.4311056    -0.2968418
H           4.7350035     0.2873206     1.3332367
C           4.2730616    -2.3270324     1.6373782
H           3.6460473    -3.1470213     1.9865104
H           4.7688042    -1.8645578     2.4966651
H           5.0412058    -2.7221459     0.9559630
O           1.7938115    -3.1731735     0.4849567
O           2.8236074    -1.9012264    -1.4716616
23
193_C8H11NO2S_0-6-11-12 (120,) energy =    -914.7876082
C           0.7258843     0.1450639    -1.1550065
H           1.3116406     0.0346132    -2.0612058
C          -0.3263579     1.0596862    -1.0713368
H          -0.5680137     1.6816578    -1.9284495
C          -1.0648426     1.1706131     0.1073666
H          -1.8829872     1.8829939     0.1685662
C           1.0230300    -0.6450040    -0.0448589
C          -0.7597411     0.3664276     1.2103522
H          -1.3400077     0.4522519     2.1246003
C           0.2859949    -0.5511087     1.1388702
H           0.5318297    -1.1859505     1.9834801
S           2.3273008    -1.8743726    -0.1736168
N           3.4034034    -1.3404326     1.0385659
C           4.1641022    -0.1433733     0.6613029
H           3.4835039     0.6314986     0.2993206
H           4.9170259    -0.3460735    -0.1127547
H           4.6617698     0.2341256     1.5598505
C           4.2346495    -2.4092771     1.6120590
H           3.6060043    -3.2655039     1.8555627
H           4.6829319    -2.0206791     2.5318818
H           5.0396141    -2.7307564     0.9345142
O           1.8101100    -3.1678720     0.2854012
O           2.9240366    -1.7484663    -1.5124061
23
193_C8H11NO2S_0-6-11-12 (135,) energy =    -914.7872683
C           0.6314469     0.0548872    -1.2401546
H           1.1383357    -0.1097663    -2.1848281
C          -0.4594985     0.9203896    -1.1407653
H          -0.8171598     1.4390517    -2.0256154
C          -1.0865464     1.1182622     0.0902802
H          -1.9342281     1.7939662     0.1641204
C           1.0824457    -0.6002343    -0.0936266
C          -0.6289412     0.4498836     1.2298860
H          -1.1195945     0.6046803     2.1866220
C           0.4557528    -0.4207046     1.1426508
H           0.8229401    -0.9462197     2.0175097
S           2.4054386    -1.8054609    -0.2649161
N           3.4121608    -1.3745166     1.0421961
C           4.1914957    -0.1535825     0.8034202
H           3.5339047     0.6448463     0.4504966
H           4.9952195    -0.3020531     0.0693617
H           4.6260669     0.1595366     1.7577999
C           4.2084821    -2.4872732     1.5802168
H           3.5678963    -3.3583518     1.7154388
H           4.5983174    -2.1735820     2.5537512
H           5.0543425    -2.7558197     0.9302529
O           1.8862825    -3.1417584     0.0465209
O           3.0625268    -1.5577897    -1.5576725
23
193_C8H11NO2S_0-6-11-12 (150,) energy =    -914.7863096
C           0.4994438    -0.0241938    -1.2805377
H           0.9224618    -0.2560560    -2.2522016
C          -0.6282884     0.7876242    -1.1598062
H          -1.1015200     1.1865522    -2.0524222
C          -1.1436787     1.0887175     0.1025999
H          -2.0202210     1.7243856     0.1926210
C           1.1032975    -0.5249731    -0.1245922
C          -0.5359423     0.5747617     1.2506779
H          -0.9383193     0.8088263     2.2322268
C           0.5870171    -0.2455313     1.1429975
H           1.0684243    -0.6558765     2.0236756
S           2.4566796    -1.6897225    -0.3399813
N           3.3984196    -1.3771400     1.0447555
C           4.2204466    -0.1652052     0.9351545
H           3.6073078     0.6718843     0.5925142
H           5.0656623    -0.2901243     0.2449643
H           4.6001111     0.0750438     1.9331656
C           4.1281387    -2.5440773     1.5614834
H           3.4585073    -3.4025309     1.6001715
H           4.4620218    -2.3018330     2.5754437
H           5.0071888    -2.7971840     0.9507986
O           1.9474559    -3.0574253    -0.1873584
O           3.1644682    -1.3105514    -1.5722506
23
193_C8H11NO2S_0-6-11-12 (165,) energy =    -914.7847904
C           0.4177091    -0.1645810    -1.2879904
H           0.7619900    -0.4763096    -2.2687551
C          -0.7489495     0.5840584    -1.1456224
H          -1.3295447     0.8465506    -2.0253063
C          -1.1680967     0.9972263     0.1217570
H          -2.0766320     1.5835289     0.2279067
C           1.1612169    -0.4921094    -0.1494722
C          -0.4234228     0.6558856     1.2515777
H          -0.7509582     0.9735248     2.2375093
C           0.7414991    -0.1031015     1.1235134
H           1.3221302    -0.3912570     1.9923020
S           2.5743673    -1.5780207    -0.4006128
N           3.4362544    -1.3909214     1.0555558
C           4.3145746    -0.2135346     1.0753418
H           3.7663712     0.6685662     0.7365917
H           5.2025060    -0.3398465     0.4417441
H           4.6290780    -0.0460073     2.1102919
C           4.0690003    -2.6168004     1.5624790
H           3.3614039    -3.4427037     1.5041383
H           4.3340460    -2.4420373     2.6101477
H           4.9800969    -2.8823175     1.0068309
O           2.1027779    -2.9673958    -0.4300462
O           3.3342262    -1.0456268    -1.5410897
23
193_C8H11NO2S_0-6-11-12 (180,) energy =    -914.7832508
C           0.3527651    -0.2781700    -1.2583299
H           0.6630104    -0.5973251    -2.2482820
C          -0.9127722     0.2662580    -1.0545511
H          -1.5921401     0.3756475    -1.8950151
C          -1.3066170     0.6707852     0.2244243
H          -2.2952523     1.0939397     0.3791282
C           1.2209856    -0.4161510    -0.1694532
C          -0.4299243     0.5363583     1.3006472
H          -0.7317898     0.8563180     2.2940135
C           0.8443480    -0.0034450     1.1079350
H           1.5434787    -0.0948527     1.9310225
S           2.8491760    -1.0962925    -0.5296198
N           3.6087271    -1.1179034     0.9879032
C           4.9212127    -0.4636828     1.0609078
H           4.8971688     0.4752049     0.5098239
H           5.7267589    -1.0926721     0.6558597
H           5.1318461    -0.2567769     2.1152832
C           3.5273089    -2.3978721     1.7029894
H           2.5115596    -2.7936227     1.6552349
H           3.7802256    -2.2127472     2.7520208
H           4.2137152    -3.1516639     1.2947553
O           2.6513338    -2.4710275    -1.0076205
O           3.5643915    -0.1260107    -1.3667217
