23
193_C8H11NO2S_6-11-12-17 (-165,) energy =    -914.7871560
C           0.9771243    -0.2331673    -1.1596344
H           1.7101279    -0.5344816    -1.9004418
C           0.0091180     0.7252258    -1.4531977
H          -0.0133369     1.1849368    -2.4370965
C          -0.9342210     1.0885142    -0.4869709
H          -1.6887919     1.8339814    -0.7225810
C           0.9915325    -0.8108422     0.1128738
C          -0.9148527     0.4946096     0.7760089
H          -1.6532538     0.7735452     1.5222131
C           0.0523531    -0.4642775     1.0841821
H           0.0848299    -0.9466450     2.0551212
S           2.1963679    -2.0918993     0.4778793
N           3.6594179    -1.1991612     0.4226247
C           3.7772656    -0.2183845     1.5111157
H           2.9014347     0.4345930     1.5230085
H           4.6580908     0.3982671     1.3078220
H           3.8868426    -0.6909679     2.4974243
C           4.8369737    -2.0817972     0.3414536
H           4.6918914    -2.8041813    -0.4623449
H           5.0299974    -2.6154793     1.2835607
H           5.7024471    -1.4557304     0.1041279
O           1.9221747    -2.5826942     1.8383556
O           2.2569038    -3.0334723    -0.6445441
23
193_C8H11NO2S_6-11-12-17 (-150,) energy =    -914.7876257
C           0.9548897    -0.2758322    -1.1824129
H           1.6915002    -0.6096573    -1.9054955
C           0.0011207     0.6819903    -1.5189599
H          -0.0065526     1.1069612    -2.5186078
C          -0.9463366     1.0915094    -0.5749607
H          -1.6888415     1.8378541    -0.8437453
C           0.9496387    -0.8110956     0.1085303
C          -0.9454192     0.5424810     0.7077823
H          -1.6860975     0.8568999     1.4374811
C           0.0062598    -0.4182614     1.0576165
H           0.0214338    -0.8683913     2.0443830
S           2.1435538    -2.0851485     0.5336750
N           3.6035161    -1.2058757     0.4762549
C           3.8203456    -0.3424998     1.6417395
H           2.9322240     0.2683377     1.8230454
H           4.6529704     0.3293397     1.4113731
H           4.0535440    -0.9101679     2.5530666
C           4.7794972    -2.0008607     0.0954988
H           4.5358410    -2.6168353    -0.7696505
H           5.1380317    -2.6468762     0.9106990
H           5.5766643    -1.3012558    -0.1753468
O           1.8457425    -2.5314506     1.9030901
O           2.2097756    -3.0545649    -0.5651852
23
193_C8H11NO2S_6-11-12-17 (-135,) energy =    -914.7868584
C           0.9554893    -0.3705461    -1.1764714
H           1.6792646    -0.7695476    -1.8793676
C           0.0196966     0.5810707    -1.5745483
H           0.0164563     0.9365604    -2.6010214
C          -0.9157821     1.0730982    -0.6582612
H          -1.6439096     1.8146772    -0.9751920
C           0.9438864    -0.8197875     0.1468230
C          -0.9214328     0.6105174     0.6578171
H          -1.6536468     0.9871892     1.3663218
C           0.0113253    -0.3449443     1.0686574
H           0.0164974    -0.7315075     2.0821069
S           2.1302540    -2.0699938     0.6589694
N           3.5884007    -1.2051943     0.6469281
C           3.8694244    -0.4429104     1.8644608
H           2.9809349     0.1150159     2.1701662
H           4.6611308     0.2777127     1.6363384
H           4.1899015    -1.0804106     2.6996476
C           4.7456090    -1.8595834     0.0299355
H           4.4262128    -2.4047077    -0.8573082
H           5.2507910    -2.5580190     0.7136680
H           5.4559265    -1.0789760    -0.2625326
O           1.7847373    -2.4675186     2.0304656
O           2.2304581    -3.0662675    -0.4132243
23
193_C8H11NO2S_6-11-12-17 (-120,) energy =    -914.7857485
C           0.8836470    -0.5042814    -1.2257980
H           1.5401177    -1.0077202    -1.9276109
C          -0.0298573     0.4536975    -1.6610221
H          -0.0781781     0.7114796    -2.7152347
C          -0.8871570     1.0739810    -0.7471415
H          -1.5988375     1.8186374    -1.0928479
C           0.9302420    -0.8297277     0.1322649
C          -0.8388772     0.7316280     0.6047888
H          -1.5142815     1.2039553     1.3125095
C           0.0716187    -0.2277398     1.0526815
H           0.1086518    -0.5250662     2.0951155
S           2.1119767    -2.0602924     0.7023543
N           3.5662562    -1.1999824     0.7835066
C           3.9178587    -0.6264270     2.0819083
H           3.0364482    -0.1888849     2.5538868
H           4.6486572     0.1713906     1.9130417
H           4.3490532    -1.3684404     2.7680250
C           4.6873044    -1.6557658    -0.0389975
H           4.3153803    -2.0753020    -0.9726384
H           5.2942343    -2.4197738     0.4690537
H           5.3233319    -0.7916468    -0.2607933
O           1.7127997    -2.4470654     2.0605324
O           2.2621910    -3.0525100    -0.3677181
23
193_C8H11NO2S_6-11-12-17 (-105,) energy =    -914.7854194
C           0.7286156    -0.7225638    -1.2743678
H           1.2753900    -1.3763547    -1.9452705
C          -0.1868428     0.2107049    -1.7626659
H          -0.3451055     0.2995841    -2.8337340
C          -0.9039806     1.0185040    -0.8780864
H          -1.6181624     1.7414931    -1.2624377
C           0.9171255    -0.8293292     0.1045261
C          -0.7154941     0.8915245     0.5006891
H          -1.2851453     1.5100345     1.1884806
C           0.1967755    -0.0366770     1.0007956
H           0.3367894    -0.1632390     2.0689918
S           2.1059842    -2.0188983     0.7410883
N           3.5227328    -1.0929224     0.9291663
C           4.0288336    -0.9438463     2.2978982
H           3.2030906    -0.7762062     2.9881489
H           4.6895718    -0.0708049     2.3158853
H           4.5940425    -1.8239215     2.6373200
C           4.5671353    -1.3115594    -0.0766337
H           4.1316949    -1.3377800    -1.0759721
H           5.1232210    -2.2452291     0.0863741
H           5.2628542    -0.4679405    -0.0228464
O           1.6552076    -2.4107444     2.0812432
O           2.3378524    -3.0114710    -0.3149393
23
193_C8H11NO2S_6-11-12-17 (-90,) energy =    -914.7873113
C           0.7205761     0.6764716    -0.0921526
H           1.3448417     1.5005284    -0.4216366
C          -0.5173484     0.9085114     0.5068245
H          -0.8569340     1.9283434     0.6642977
C          -1.3224594    -0.1664170     0.8921263
H          -2.2875426     0.0185252     1.3557184
C           1.1413385    -0.6405171    -0.2992259
C          -0.8959895    -1.4778919     0.6721960
H          -1.5294083    -2.3127273     0.9585641
C           0.3406068    -1.7226005     0.0735410
H           0.6760844    -2.7339440    -0.1287965
S           2.7620122    -0.9390548    -1.0271588
N           3.8682770    -0.9216218     0.2388417
C           3.7211622    -1.9270727     1.2859643
H           3.3982680    -2.8699918     0.8420470
H           3.0077390    -1.6241828     2.0681637
H           4.7002862    -2.0865762     1.7496619
C           4.4975599     0.3401297     0.6180675
H           4.6168236     0.9641967    -0.2665553
H           5.4885562     0.1163248     1.0278067
H           3.9214399     0.8892307     1.3801735
O           2.7367237    -2.3103648    -1.5414256
O           3.0935068     0.2044042    -1.8803908
23
193_C8H11NO2S_6-11-12-17 (-75,) energy =    -914.7886983
C           0.7815960     0.6923859    -0.1806345
H           1.3991213     1.4926618    -0.5744061
C          -0.4464076     0.9623424     0.4238326
H          -0.7839862     1.9902605     0.5214512
C          -1.2438367    -0.0853002     0.8905788
H          -2.2010032     0.1292839     1.3577693
C           1.1994216    -0.6352133    -0.3106330
C          -0.8207253    -1.4087080     0.7473139
H          -1.4490900    -2.2231708     1.0965757
C           0.4054092    -1.6914090     0.1447014
H           0.7365774    -2.7141423     0.0005168
S           2.8078295    -0.9866600    -1.0404573
N           3.9311141    -0.9604610     0.2219091
C           3.8254040    -2.0287118     1.2154368
H           3.6378146    -2.9756707     0.7086207
H           3.0341064    -1.8426666     1.9591257
H           4.7842211    -2.0996415     1.7389397
C           4.3072247     0.3526147     0.7461963
H           4.4334070     1.0492130    -0.0822554
H           5.2666259     0.2469666     1.2630262
H           3.5694191     0.7541692     1.4595994
O           2.7680982    -2.3686319    -1.5236730
O           3.1498021     0.1353826    -1.9166425
23
193_C8H11NO2S_6-11-12-17 (-60,) energy =    -914.7882991
C           0.7705872     0.7084969    -0.2903808
H           1.3730504     1.4773047    -0.7618947
C          -0.4455275     1.0175149     0.3197522
H          -0.7902134     2.0474796     0.3413531
C          -1.2216859     0.0061193     0.8904038
H          -2.1692666     0.2517054     1.3618450
C           1.1970938    -0.6218103    -0.3213359
C          -0.7901538    -1.3217084     0.8457951
H          -1.4025260    -2.1093222     1.2756370
C           0.4234584    -1.6434306     0.2377752
H           0.7579822    -2.6730158     0.1675502
S           2.7851763    -1.0289669    -1.0676931
N           3.9426134    -0.9837018     0.1734870
C           3.9574849    -2.1382174     1.0771418
H           3.8856924    -3.0556547     0.4939252
H           3.1454253    -2.1073529     1.8217231
H           4.9143996    -2.1331907     1.6087089
C           4.0840049     0.3057937     0.8549038
H           4.1228700     1.1051070     0.1135277
H           5.0329414     0.2962410     1.4002112
H           3.2701123     0.5022400     1.5703146
O           2.7248368    -2.4205294    -1.5195214
O           3.1211371     0.0701915    -1.9749643
23
193_C8H11NO2S_6-11-12-17 (-45,) energy =    -914.7857989
C           0.7815814     0.7177067    -0.3889190
H           1.3748897     1.4466407    -0.9301462
C          -0.4361452     1.0656206     0.1964262
H          -0.7937290     2.0889644     0.1257159
C          -1.1971796     0.1012084     0.8612292
H          -2.1458240     0.3778402     1.3129264
C           1.2242657    -0.6039161    -0.2991430
C          -0.7492263    -1.2197869     0.9368215
H          -1.3496887    -1.9721973     1.4401794
C           0.4657537    -1.5801535     0.3537580
H           0.8121039    -2.6082256     0.3757504
S           2.8040895    -1.0687462    -1.0326657
N           3.9819950    -0.9814985     0.1995966
C           4.1770397    -2.2103336     0.9793477
H           4.2107462    -3.0673054     0.3087286
H           3.3909323    -2.3658521     1.7361918
H           5.1394077    -2.1237537     1.4941502
C           3.9113196     0.2181439     1.0391680
H           3.7981019     1.1022692     0.4084646
H           4.8596943     0.3081161     1.5781488
H           3.0910087     0.1803745     1.7718137
O           2.7297041    -2.4750490    -1.4371181
O           3.1365843    -0.0071856    -1.9851511
23
193_C8H11NO2S_6-11-12-17 (-30,) energy =    -914.7820984
C           0.7552229     0.7191243    -0.4907049
H           1.3449067     1.3999842    -1.0950309
C          -0.4616641     1.1104879     0.0681687
H          -0.8248615     2.1220110    -0.0897413
C          -1.2144684     0.2039343     0.8185542
H          -2.1624976     0.5137428     1.2495431
C           1.2045060    -0.5870831    -0.2868872
C          -0.7592281    -1.1032541     1.0068461
H          -1.3537307    -1.8112209     1.5772344
C           0.4548519    -1.5073558     0.4509871
H           0.8073874    -2.5277661     0.5617875
S           2.7721113    -1.1136180    -1.0065704
N           3.9714384    -0.9632855     0.2125740
C           4.3957077    -2.2260958     0.8321209
H           4.5390021    -2.9852249     0.0655671
H           3.6798736    -2.6003776     1.5814345
H           5.3526729    -2.0375810     1.3297386
C           3.7415551     0.0935298     1.2011563
H           3.4711090     1.0252125     0.6991999
H           4.6826033     0.2636897     1.7337508
H           2.9620000    -0.1631582     1.9343442
O           2.6798781    -2.5396447    -1.3365751
O           3.0934701    -0.1153366    -2.0291271
23
193_C8H11NO2S_6-11-12-17 (-15,) energy =    -914.7787619
C           0.7498470     0.7348026    -0.5463847
H           1.3503024     1.3653168    -1.1934314
C          -0.4655257     1.1772102    -0.0233519
H          -0.8179142     2.1784752    -0.2541346
C          -1.2314165     0.3329381     0.7844618
H          -2.1785325     0.6817152     1.1866830
C           1.1844431    -0.5576209    -0.2459814
C          -0.7911681    -0.9623742     1.0671540
H          -1.3960506    -1.6227176     1.6819959
C           0.4217504    -1.4168437     0.5489473
H           0.7643643    -2.4299086     0.7332816
S           2.7361438    -1.1561756    -0.9406665
N           3.9486500    -0.9215075     0.2631716
C           4.6113924    -2.1594205     0.6961035
H           4.8724300    -2.7682550    -0.1681866
H           3.9966146    -2.7634822     1.3805676
H           5.5321392    -1.8675230     1.2115567
C           3.6177288    -0.0340878     1.3802005
H           3.1950942     0.9026938     1.0117050
H           4.5513891     0.2044754     1.8995087
H           2.9183464    -0.4821834     2.1029824
O           2.6162733    -2.6037283    -1.1579572
O           3.0558106    -0.2599366    -2.0547965
23
193_C8H11NO2S_6-11-12-17 (0,) energy =    -914.7772940
C           0.7644735     0.6822288    -0.5908749
H           1.3952585     1.2554775    -1.2621469
C          -0.4423029     1.1936632    -0.1129572
H          -0.7573638     2.1916641    -0.4038649
C          -1.2480295     0.4203747     0.7267153
H          -2.1888921     0.8216898     1.0930493
C           1.1504295    -0.6045398    -0.2094396
C          -0.8568753    -0.8715780     1.0867242
H          -1.4939641    -1.4763634     1.7256722
C           0.3478732    -1.3946175     0.6163350
H           0.6559560    -2.4056045     0.8616147
S           2.6816715    -1.2929461    -0.8571370
N           3.8924816    -0.9403508     0.3188875
C           4.7843185    -2.0796887     0.5701552
H           5.1161213    -2.5129569    -0.3742644
H           4.3152477    -2.8705215     1.1727154
H           5.6614695    -1.6937111     1.0989311
C           3.5090112    -0.2113256     1.5287464
H           2.9478933     0.6886981     1.2737454
H           4.4334339     0.1007755     2.0252010
H           2.9179961    -0.8106092     2.2396874
O           2.5289144    -2.7547045    -0.9191070
O           3.0135976    -0.5438013    -2.0722464
23
193_C8H11NO2S_6-11-12-17 (15,) energy =    -914.7780339
C           0.7903400     0.7022681    -0.5907786
H           1.4538208     1.2456491    -1.2555039
C          -0.4065076     1.2620570    -0.1436027
H          -0.6801965     2.2670507    -0.4516914
C          -1.2563124     0.5265976     0.6868407
H          -2.1897216     0.9651802     1.0287517
C           1.1227995    -0.5923279    -0.1850574
C          -0.9191199    -0.7742390     1.0686877
H          -1.5906524    -1.3486212     1.7003573
C           0.2763051    -1.3450524     0.6310670
H           0.5471234    -2.3616724     0.8952138
S           2.6374505    -1.3402223    -0.7978725
N           3.8507594    -0.8721953     0.3296827
C           4.9300125    -1.8647915     0.3942577
H           5.2385732    -2.1414118    -0.6162261
H           4.6437976    -2.7752448     0.9392132
H           5.7823109    -1.3932930     0.8932914
C           3.4496269    -0.3282219     1.6274391
H           2.7582941     0.5047920     1.4982030
H           4.3555966     0.0579711     2.1057619
H           2.9944046    -1.0715790     2.3020482
O           2.4672248    -2.8012652    -0.7285688
O           2.9735269    -0.7157370    -2.0806457
23
193_C8H11NO2S_6-11-12-17 (30,) energy =    -914.7804620
C           0.8347692     0.6592909    -0.5756824
H           1.5459590     1.1645217    -1.2209699
C          -0.3483525     1.2806577    -0.1767941
H          -0.5625227     2.2940820    -0.5037927
C          -1.2611503     0.5957528     0.6301205
H          -2.1839839     1.0820404     0.9341985
C           1.0911400    -0.6444528    -0.1436598
C          -0.9995350    -0.7144076     1.0376371
H          -1.7188262    -1.2480615     1.6522006
C           0.1826633    -1.3462687     0.6499512
H           0.4005396    -2.3687804     0.9385203
S           2.5873909    -1.4694370    -0.6961363
N           3.8012630    -0.8705796     0.3583548
C           5.0153810    -1.6921144     0.2764567
H           5.2620324    -1.8694463    -0.7729124
H           4.9118578    -2.6579572     0.7908638
H           5.8344512    -1.1245969     0.7286938
C           3.4191339    -0.4866076     1.7183678
H           2.6097839     0.2431591     1.6974447
H           4.2933734    -0.0094253     2.1728269
H           3.1230205    -1.3383704     2.3520839
O           2.3978715    -2.9123883    -0.4668388
O           2.9298284    -0.9953363    -2.0403446
23
193_C8H11NO2S_6-11-12-17 (45,) energy =    -914.7836672
C           0.8792117     0.6466396    -0.5154644
H           1.6471753     1.1201257    -1.1183941
C          -0.2880790     1.3265700    -0.1710904
H          -0.4330417     2.3513330    -0.5007586
C          -1.2737344     0.6863684     0.5859044
H          -2.1841794     1.2185320     0.8475109
C           1.0475114    -0.6702493    -0.0789560
C          -1.0988701    -0.6358183     0.9997565
H          -1.8717028    -1.1337818     1.5782391
C           0.0679260    -1.3258612     0.6672020
H           0.2244646    -2.3563431     0.9667276
S           2.5208679    -1.5720039    -0.5704438
N           3.7398533    -0.8513241     0.3897047
C           5.0495655    -1.4724275     0.1520041
H           5.2086336    -1.5725586    -0.9233905
H           5.1423945    -2.4590588     0.6285693
H           5.8166351    -0.8042020     0.5554392
C           3.4272883    -0.6290282     1.8036021
H           2.4985770    -0.0667415     1.9040889
H           4.2376767    -0.0247285     2.2236485
H           3.3505247    -1.5627337     2.3827014
O           2.3148542    -2.9786441    -0.1832712
O           2.8551729    -1.2476039    -1.9604721
23
193_C8H11NO2S_6-11-12-17 (60,) energy =    -914.7865309
C           0.9334979     0.6065103    -0.5035648
H           1.7488026     1.0425270    -1.0713381
C          -0.2220835     1.3344264    -0.2266040
H          -0.3113480     2.3581716    -0.5785038
C          -1.2658000     0.7456875     0.4941091
H          -2.1662554     1.3163544     0.7041343
C           1.0309361    -0.7082239    -0.0397552
C          -1.1593658    -0.5728611     0.9397835
H          -1.9748352    -1.0298105     1.4930295
C          -0.0051861    -1.3118894     0.6727759
H           0.1004211    -2.3402851     1.0007357
S           2.4877339    -1.6757843    -0.4520881
N           3.7010619    -0.8585880     0.4257211
C           5.0602934    -1.2492795     0.0272329
H           5.1284909    -1.2503601    -1.0612798
H           5.3454277    -2.2391867     0.4130131
H           5.7528064    -0.5004939     0.4242519
C           3.4927957    -0.8128767     1.8761782
H           2.4877916    -0.4500258     2.1001937
H           4.2121907    -0.1006800     2.2923585
H           3.6375781    -1.7907238     2.3587826
O           2.2701497    -3.0344286     0.0724036
O           2.8184280    -1.4846323    -1.8677071
23
193_C8H11NO2S_6-11-12-17 (75,) energy =    -914.7876565
C           0.9402529     0.5650207    -0.5740138
H           1.7668887     0.9549726    -1.1583863
C          -0.2042017     1.3271514    -0.3506128
H          -0.2731422     2.3297870    -0.7628139
C          -1.2628037     0.8014131     0.3972900
H          -2.1535583     1.4001269     0.5666443
C           1.0111156    -0.7225091    -0.0351859
C          -1.1822620    -0.4890212     0.9220020
H          -2.0081461    -0.8979235     1.4970164
C          -0.0396240    -1.2627392     0.7058818
H           0.0435586    -2.2722730     1.0937733
S           2.4612123    -1.7312928    -0.3648594
N           3.6631184    -0.8723683     0.4901923
C           5.0191958    -1.0383440    -0.0539531
H           4.9938704    -0.9072049    -1.1354813
H           5.4542794    -2.0207186     0.1826643
H           5.6487066    -0.2589184     0.3868154
C           3.5886650    -1.0493713     1.9450953
H           2.5708268    -0.8543289     2.2923668
H           4.2520246    -0.3113108     2.4063596
H           3.8876274    -2.0568943     2.2654428
O           2.2251787    -3.0549115     0.2321490
O           2.8098809    -1.6107525    -1.7844295
23
193_C8H11NO2S_6-11-12-17 (90,) energy =    -914.7867018
C           0.8954948     0.5265537    -0.6865409
H           1.7075049     0.8530210    -1.3275765
C          -0.2365676     1.3174545    -0.5046338
H          -0.3070428     2.2794706    -1.0041925
C          -1.2810535     0.8728259     0.3125460
H          -2.1619606     1.4939926     0.4493433
C           0.9683289    -0.7095478    -0.0390900
C          -1.1990832    -0.3672097     0.9465260
H          -2.0147730    -0.7154996     1.5736915
C          -0.0692684    -1.1697622     0.7712248
H           0.0095416    -2.1447282     1.2400665
S           2.4151302    -1.7460445    -0.2881476
N           3.6071387    -0.9049461     0.6047761
C           4.9169890    -0.8025821    -0.0551305
H           4.7831810    -0.5185907    -1.0980283
H           5.4902422    -1.7406260    -0.0119603
H           5.4837909    -0.0204526     0.4601855
C           3.6974380    -1.3254822     2.0081830
H           2.7069758    -1.3083358     2.4693648
H           4.3291244    -0.6020491     2.5328846
H           4.1235162    -2.3309625     2.1240176
O           2.1416818    -3.0516601     0.3280670
O           2.8035745    -1.6447965    -1.6992393
23
193_C8H11NO2S_6-11-12-17 (105,) energy =    -914.7854196
C           0.8468254     0.4056180    -0.9007969
H           1.6010932     0.6129736    -1.6523084
C          -0.2689181     1.2290550    -0.7558828
H          -0.3799201     2.1015720    -1.3934548
C          -1.2450750     0.9279965     0.1976077
H          -2.1139052     1.5716017     0.3044138
C           0.9725040    -0.7160873    -0.0783215
C          -1.1136604    -0.2037691     1.0045389
H          -1.8803368    -0.4456021     1.7351928
C          -0.0018297    -1.0361228     0.8685411
H           0.1040961    -1.9334116     1.4686770
S           2.4154781    -1.7754165    -0.2493656
N           3.5744030    -1.0203516     0.7439011
C           4.7722059    -0.5032918     0.0732576
H           4.4997342    -0.0215639    -0.8648782
H           5.5097372    -1.2904930    -0.1401437
H           5.2297737     0.2400850     0.7344034
C           3.8412642    -1.6773430     2.0274240
H           2.9058222    -1.9689000     2.5058927
H           4.3505367    -0.9538330     2.6722352
H           4.4728942    -2.5704314     1.9227352
O           2.0746641    -3.0749949     0.3414619
O           2.8804408    -1.6576271    -1.6359794
23
193_C8H11NO2S_6-11-12-17 (120,) energy =    -914.7857487
C           0.8052851     0.2477203    -1.0663410
H           1.4827420     0.2932885    -1.9121857
C          -0.2803437     1.1195038    -0.9596779
H          -0.4449986     1.8702218    -1.7274217
C          -1.1549660     1.0196014     0.1230467
H          -2.0003849     1.6975961     0.2012176
C           1.0019030    -0.7143641    -0.0751384
C          -0.9535339     0.0423649     1.1025529
H          -1.6432871    -0.0427563     1.9374979
C           0.1267674    -0.8325767     1.0077397
H           0.2829295    -1.6083811     1.7498412
S           2.4028287    -1.8355980    -0.2004010
N           3.5299179    -1.1772293     0.8756633
C           4.5272721    -0.2708891     0.3078248
H           4.0616709     0.3977007    -0.4183226
H           5.3497545    -0.8054090    -0.1871830
H           4.9349203     0.3370892     1.1222397
C           3.9807931    -2.0026437     1.9966405
H           3.1690358    -2.6459701     2.3330929
H           4.2756943    -1.3370509     2.8154238
H           4.8396877    -2.6360250     1.7296585
O           1.9825978    -3.1255661     0.3578258
O           2.9274608    -1.7217418    -1.5661518
23
193_C8H11NO2S_6-11-12-17 (135,) energy =    -914.7868605
C           0.7765272     0.1521518    -1.1550346
H           1.4181171     0.1090839    -2.0285386
C          -0.3061302     1.0326822    -1.0894653
H          -0.5094707     1.6988711    -1.9230505
C          -1.1256235     1.0509325     0.0393059
H          -1.9680983     1.7354358     0.0866447
C           1.0236531    -0.6980164    -0.0774958
C          -0.8712974     0.1862539     1.1090552
H          -1.5162978     0.1968752     1.9830626
C           0.2058340    -0.6950797     1.0557178
H           0.4075515    -1.3791265     1.8733343
S           2.3976080    -1.8545327    -0.1652777
N           3.4701879    -1.2231420     0.9860590
C           4.3447964    -0.1545369     0.5006067
H           3.7633400     0.5761964    -0.0669226
H           5.1583833    -0.5283624    -0.1357964
H           4.7720514     0.3533838     1.3709945
C           4.0914112    -2.1767289     1.9096187
H           3.3610916    -2.9299418     2.2023683
H           4.4132618    -1.6222454     2.7975144
H           4.9661283    -2.6808627     1.4722870
O           1.9386073    -3.1450756     0.3599783
O           2.9753835    -1.7486935    -1.5119184
23
193_C8H11NO2S_6-11-12-17 (150,) energy =    -914.7876258
C           0.7742407     0.0829321    -1.1722627
H           1.4154762    -0.0289640    -2.0399348
C          -0.2866233     0.9915169    -1.1607230
H          -0.4759362     1.6093866    -2.0338344
C          -1.1017114     1.1006467    -0.0335451
H          -1.9266634     1.8077650    -0.0285095
C           1.0025719    -0.7029290    -0.0429580
C          -0.8654393     0.3002150     1.0889663
H          -1.5060960     0.3835370     1.9622136
C           0.1889283    -0.6101043     1.0895036
H           0.3804870    -1.2435742     1.9491116
S           2.3322734    -1.9114231    -0.0695931
N           3.3804675    -1.2796134     1.1174523
C           4.1606671    -0.1236750     0.6637345
H           3.4986688     0.6160448     0.2062276
H           4.9423645    -0.3963073    -0.0585994
H           4.6246386     0.3339124     1.5429542
C           4.1719417    -2.2903518     1.8328479
H           3.5240829    -3.1147838     2.1292918
H           4.5805073    -1.8147122     2.7301331
H           5.0047252    -2.6826819     1.2303658
O           1.8273312    -3.1794481     0.4677994
O           2.9489029    -1.8612491    -1.4039271
23
193_C8H11NO2S_6-11-12-17 (165,) energy =    -914.7871562
C           0.8309421     0.0407118    -1.1797649
H           1.4793647    -0.1094621    -2.0361821
C          -0.2171749     0.9629421    -1.2090321
H          -0.3914140     1.5516659    -2.1050839
C          -1.0391812     1.1239619    -0.0925284
H          -1.8537915     1.8424948    -0.1196654
C           1.0385137    -0.7072649    -0.0208803
C          -0.8236541     0.3613420     1.0596343
H          -1.4697855     0.4851192     1.9239688
C           0.2164242    -0.5650972     1.1003518
H           0.3916429    -1.1722803     1.9821358
S           2.3415751    -1.9432049     0.0015544
N           3.3912971    -1.2988373     1.1941699
C           4.0361411    -0.0451854     0.7779571
H           3.2801172     0.6787373     0.4649915
H           4.7556203    -0.1901634    -0.0402547
H           4.5585293     0.3637904     1.6481788
C           4.3696143    -2.2973742     1.6609023
H           3.8471851    -3.2151037     1.9326208
H           4.8575608    -1.8897517     2.5514615
H           5.1363191    -2.5220971     0.9050337
O           1.8147347    -3.1917950     0.5614092
O           2.9767954    -1.9406858    -1.3264328
23
193_C8H11NO2S_6-11-12-17 (180,) energy =    -914.7851027
C           0.8950446    -0.0011450    -1.1603887
H           1.5639022    -0.1947648    -1.9919250
C          -0.1197545     0.9537808    -1.2439758
H          -0.2472493     1.5247845    -2.1591544
C          -0.9692514     1.1707042    -0.1573323
H          -1.7574396     1.9152855    -0.2275617
C           1.0406685    -0.7260680     0.0225025
C          -0.8163456     0.4300422     1.0185109
H          -1.4852121     0.5955706     1.8581710
C           0.1886235    -0.5312803     1.1128928
H           0.3122302    -1.1270225     2.0112341
S           2.2991390    -2.0032403     0.1168421
N           3.3910385    -1.3464003     1.2766804
C           3.8939470    -0.0097579     0.9151727
H           3.0637085     0.6885796     0.7968803
H           4.4980833    -0.0167172    -0.0040006
H           4.5155885     0.3385938     1.7454843
C           4.5140985    -2.2832180     1.4848134
H           4.1191978    -3.2749950     1.7126118
H           5.0857186    -1.9281672     2.3472519
H           5.1770799    -2.3438723     0.6103349
O           1.7313793    -3.2053942     0.7339872
O           2.9376629    -2.0900054    -1.2078432
