24
312_C10H14_0-4-19-11 (-165,) energy =    -389.5069684
C           2.5721700    -2.1038243    -1.5278382
H           2.9816121    -2.8771963    -0.8681174
H           3.2658714    -1.9753072    -2.3659882
H           1.6290042    -2.4783697    -1.9402248
C           2.3302772    -0.7928941    -0.7712946
H           1.5283268    -0.9638655    -0.0430268
H           1.9262316    -0.0482134    -1.4740734
C           5.7735750     0.9186522     1.2543765
H           6.6299619     1.3561689     1.7608509
C           4.4837767     1.3568998     1.5523669
H           4.3419150     2.1407480     2.2941940
C           3.3574004     0.8170581     0.9193941
C           1.9847515     1.3284822     1.3190241
H           1.3009270     1.3113506     0.4628940
H           2.0731042     2.3812957     1.6148748
C           1.3607612     0.5407807     2.4865822
H           0.3766782     0.9454572     2.7506194
H           1.9999477     0.5928332     3.3749410
H           1.2345709    -0.5183638     2.2352363
C           3.5335489    -0.1958020    -0.0519250
C           4.8352375    -0.6243398    -0.3427524
H           4.9895684    -1.4017103    -1.0843930
C           5.9484118    -0.0790640     0.2988444
H           6.9447255    -0.4346262     0.0488908
24
312_C10H14_0-4-19-11 (-150,) energy =    -389.5063787
C           2.5165994    -2.1536508    -1.3674412
H           2.7750928    -2.8359593    -0.5497935
H           3.2943339    -2.2396334    -2.1334233
H           1.5802435    -2.5024110    -1.8169611
C           2.3531828    -0.7143875    -0.8588527
H           1.4662585    -0.6856997    -0.2184247
H           2.1178379    -0.0582433    -1.7111866
C           5.7847858     0.9249628     1.2464269
H           6.6403790     1.3425016     1.7707559
C           4.4946343     1.3410334     1.5700279
H           4.3515817     2.0871524     2.3494821
C           3.3667470     0.8271218     0.9160761
C           1.9973636     1.3231723     1.3473847
H           1.3228200     1.3985264     0.4868698
H           2.1017397     2.3432590     1.7372272
C           1.3474671     0.4472424     2.4348789
H           0.3702409     0.8480649     2.7286975
H           1.9809447     0.4054126     3.3278825
H           1.2008219    -0.5821266     2.0888645
C           3.5437557    -0.1394044    -0.1005567
C           4.8480401    -0.5429089    -0.4190885
H           5.0019354    -1.2806799    -1.2008448
C           5.9613532    -0.0232569     0.2411390
H           6.9585082    -0.3593571    -0.0314304
24
312_C10H14_0-4-19-11 (-135,) energy =    -389.5064160
C           2.4339909    -2.1619526    -1.1750388
H           2.4632707    -2.7092131    -0.2259703
H           3.3099945    -2.4633133    -1.7582766
H           1.5452605    -2.4874697    -1.7275714
C           2.3878127    -0.6437906    -0.9361774
H           1.4445332    -0.4037936    -0.4392396
H           2.3465545    -0.1360423    -1.9116846
C           5.8016416     0.9452830     1.2322678
H           6.6579362     1.3476936     1.7671869
C           4.5112204     1.3365442     1.5809819
H           4.3692151     2.0494602     2.3909159
C           3.3802142     0.8429673     0.9134239
C           2.0118766     1.3103479     1.3797054
H           1.3452783     1.4787232     0.5259110
H           2.1247505     2.2866356     1.8667530
C           1.3414240     0.3406863     2.3701195
H           0.3681094     0.7250767     2.6970966
H           1.9677621     0.1992217     3.2579436
H           1.1818548    -0.6458493     1.9204943
C           3.5585877    -0.0839872    -0.1380753
C           4.8655159    -0.4566852    -0.4871125
H           5.0171837    -1.1517356    -1.3088489
C           5.9793119     0.0426906     0.1848343
H           6.9774791    -0.2688989    -0.1119681
24
312_C10H14_0-4-19-11 (-120,) energy =    -389.5071866
C           2.3440139    -2.1324490    -0.9796184
H           2.1974904    -2.5051377     0.0406513
H           3.2577256    -2.5930802    -1.3698829
H           1.5053855    -2.4816259    -1.5930844
C           2.4307265    -0.5960165    -1.0012445
H           1.4772922    -0.1833126    -0.6615842
H           2.5459109    -0.2679716    -2.0442629
C           5.8217169     0.9568593     1.2174696
H           6.6762431     1.3463560     1.7646163
C           4.5296814     1.3218191     1.5876421
H           4.3854116     2.0001508     2.4262736
C           3.3991263     0.8447503     0.9062189
C           2.0278391     1.2750446     1.3974786
H           1.3731108     1.5242714     0.5536991
H           2.1393318     2.2024335     1.9723580
C           1.3369348     0.2247588     2.2860247
H           0.3650296     0.5892705     2.6389942
H           1.9524186    -0.0073419     3.1623166
H           1.1690099    -0.7123698     1.7438007
C           3.5838154    -0.0347323    -0.1830692
C           4.8922873    -0.3805010    -0.5540153
H           5.0395993    -1.0375163    -1.4087465
C           6.0047349     0.0991354     0.1330030
H           7.0047511    -0.1890068    -0.1806963
24
312_C10H14_0-4-19-11 (-105,) energy =    -389.5075712
C           2.2461132    -2.0678275    -0.8521447
H           1.9863834    -2.2751626     0.1915978
H           3.1487683    -2.6432659    -1.0859258
H           1.4333970    -2.4414017    -1.4860291
C           2.4738336    -0.5624099    -1.0849681
H           1.5379922    -0.0267232    -0.8985137
H           2.7070741    -0.4056590    -2.1466140
C           5.8142771     0.9464083     1.2323643
H           6.6584076     1.3159803     1.8087174
C           4.5141425     1.2731951     1.6093003
H           4.3540357     1.9035523     2.4818889
C           3.3950829     0.8206243     0.8923241
C           2.0168852     1.2223854     1.3887131
H           1.3534297     1.4524558     0.5466812
H           2.1130592     2.1556394     1.9571732
C           1.3464643     0.1682354     2.2881679
H           0.3779143     0.5284038     2.6545545
H           1.9752029    -0.0593767     3.1562747
H           1.1744503    -0.7693563     1.7492637
C           3.6032163     0.0112402    -0.2461313
C           4.9197600    -0.2976607    -0.6220458
H           5.0796791    -0.9067285    -1.5100062
C           6.0194777     0.1549722     0.1021926
H           7.0262379    -0.1013261    -0.2173707
24
312_C10H14_0-4-19-11 (-90,) energy =    -389.5075205
C           2.1093180    -1.9321374    -0.8793581
H           1.6606263    -1.9517138     0.1195885
H           2.9484564    -2.6368191    -0.8785268
H           1.3605014    -2.2954746    -1.5930017
C           2.5835368    -0.5165091    -1.2559156
H           1.7200836     0.1569918    -1.2867284
H           2.9799885    -0.5428816    -2.2787311
C           5.7912360     0.9479517     1.2698579
H           6.6025087     1.3151760     1.8930398
C           4.4694249     1.2219157     1.6101520
H           4.2585122     1.8078601     2.5030179
C           3.3911592     0.7696601     0.8329008
C           1.9879389     1.0936554     1.3163388
H           1.2653421     1.0278620     0.4970882
H           1.9656166     2.1372239     1.6570239
C           1.5194442     0.1920533     2.4738400
H           0.5130959     0.4741877     2.8048746
H           2.1941614     0.2740881     3.3333104
H           1.4955002    -0.8613489     2.1744081
C           3.6637942     0.0275269    -0.3371623
C           5.0024660    -0.2345510    -0.6706887
H           5.2119177    -0.7974492    -1.5783995
C           6.0608574     0.2091341     0.1174970
H           7.0855784    -0.0092621    -0.1716427
24
312_C10H14_0-4-19-11 (-75,) energy =    -389.5073832
C           1.9609047    -1.8207856    -0.8128834
H           1.4155619    -1.6504830     0.1205090
H           2.6991196    -2.6089409    -0.6264922
H           1.2460392    -2.1941521    -1.5556013
C           2.6460369    -0.5375610    -1.3157712
H           1.8786744     0.2218397    -1.5155867
H           3.1167588    -0.7470114    -2.2837398
C           5.7824930     0.9562574     1.2826447
H           6.5736678     1.3307698     1.9269755
C           4.4479195     1.1629663     1.6229626
H           4.2083453     1.7064173     2.5352051
C           3.3954961     0.6975233     0.8202079
C           1.9737246     0.9681334     1.2841700
H           1.2603857     0.7863653     0.4746802
H           1.8814171     2.0336664     1.5349266
C           1.5624790     0.1409031     2.5162443
H           0.5366273     0.3793425     2.8205043
H           2.2221066     0.3452269     3.3668322
H           1.6161250    -0.9338939     2.3113384
C           3.7052151     0.0157503    -0.3773940
C           5.0550405    -0.1822340    -0.7079055
H           5.2941841    -0.7055190    -1.6314921
C           6.0895099     0.2744851     0.1054821
H           7.1241021     0.1065923    -0.1822228
24
312_C10H14_0-4-19-11 (-60,) energy =    -389.5056178
C           1.8353030    -1.7194059    -0.7679001
H           1.1882484    -1.3725694     0.0405202
H           2.4604547    -2.5277227    -0.3709903
H           1.1924769    -2.1446280    -1.5476397
C           2.7023068    -0.5915088    -1.3546544
H           2.0331197     0.1956449    -1.7339387
H           3.2301054    -0.9769237    -2.2342981
C           5.7858848     0.9920862     1.2629539
H           6.5659634     1.3757513     1.9153573
C           4.4462397     1.1375582     1.6142087
H           4.1908710     1.6482166     2.5410178
C           3.4060036     0.6581830     0.8037282
C           1.9806879     0.9193195     1.2646878
H           1.2750570     0.7699576     0.4419321
H           1.8959527     1.9789570     1.5414668
C           1.5533881     0.0688972     2.4747992
H           0.5285221     0.3113280     2.7793880
H           2.2105524     0.2499355     3.3326019
H           1.5981604    -1.0018048     2.2489791
C           3.7313723     0.0196824    -0.4142062
C           5.0874505    -0.1164047    -0.7537625
H           5.3424627    -0.6141795    -1.6869640
C           6.1098912     0.3614222     0.0627501
H           7.1477602     0.2409574    -0.2366694
24
312_C10H14_0-4-19-11 (-45,) energy =    -389.5024100
C           1.6922102    -1.6230073    -0.7387288
H           0.9321695    -1.0869373    -0.1687449
H           2.1446399    -2.3710980    -0.0772713
H           1.1765360    -2.1610123    -1.5428517
C           2.7602635    -0.6975442    -1.3458371
H           2.2392000     0.0694077    -1.9415931
H           3.3424609    -1.2763764    -2.0711770
C           5.8003646     1.0574993     1.2263165
H           6.5752831     1.4750925     1.8638110
C           4.4623395     1.1541276     1.5958701
H           4.2012126     1.6636588     2.5217515
C           3.4242462     0.6314220     0.8074354
C           2.0050838     0.8778458     1.2965274
H           1.2932254     0.8151060     0.4686046
H           1.9467554     1.9132804     1.6572806
C           1.5671554    -0.0538982     2.4408210
H           0.5527362     0.1911172     2.7770755
H           2.2397203     0.0449786     3.3002849
H           1.5797943    -1.1040879     2.1326554
C           3.7514084    -0.0118588    -0.4080935
C           5.1091500    -0.0968204    -0.7651484
H           5.3707009    -0.6001168    -1.6935938
C           6.1266254     0.4317677     0.0243073
H           7.1625359     0.3469010    -0.2935030
24
312_C10H14_0-4-19-11 (-30,) energy =    -389.4991214
C           1.5527772    -1.4833456    -0.7928015
H           0.7708585    -0.7847201    -0.4903590
H           1.7696418    -2.1403546     0.0565059
H           1.1338534    -2.1080687    -1.5903665
C           2.8219303    -0.7940326    -1.3157613
H           2.5160854    -0.0995672    -2.1149920
H           3.4268770    -1.5545879    -1.8223287
C           5.7999418     1.1507727     1.2031179
H           6.5661665     1.6160923     1.8175497
C           4.4654716     1.2043477     1.5881306
H           4.1970606     1.7275416     2.5042373
C           3.4324889     0.6217192     0.8316142
C           2.0220653     0.8293676     1.3643555
H           1.2876889     0.7934880     0.5572305
H           1.9647049     1.8487215     1.7677437
C           1.6238377    -0.1496288     2.4832047
H           0.6197152     0.0774363     2.8605092
H           2.3234236    -0.0825334     3.3241006
H           1.6282115    -1.1864187     2.1330870
C           3.7666455    -0.0472607    -0.3678969
C           5.1244391    -0.0868672    -0.7403891
H           5.3920349    -0.6070523    -1.6580366
C           6.1324950     0.5033087     0.0138129
H           7.1657300     0.4478955    -0.3189336
24
312_C10H14_0-4-19-11 (-15,) energy =    -389.4976508
C           1.4282390    -1.2970708    -0.9370575
H           0.7375641    -0.4495531    -0.9545771
H           1.3550552    -1.7799425     0.0422109
H           1.0684056    -2.0152998    -1.6831016
C           2.8678822    -0.9009155    -1.2897110
H           2.8361044    -0.3444451    -2.2385985
H           3.4102636    -1.8248800    -1.5286889
C           5.7687687     1.2414002     1.1587145
H           6.5199536     1.7698673     1.7397205
C           4.4352876     1.2700979     1.5453056
H           4.1522221     1.8305582     2.4344958
C           3.4184378     0.6085017     0.8293546
C           2.0184603     0.7351803     1.4119161
H           1.2520771     0.6321387     0.6442816
H           1.9078194     1.7526029     1.8087260
C           1.7447079    -0.2597295     2.5547122
H           0.7395364    -0.1139554     2.9677271
H           2.4676493    -0.1285517     3.3678060
H           1.8239417    -1.2969342     2.2114235
C           3.7728361    -0.1143491    -0.3309391
C           5.1318469    -0.1302984    -0.7051692
H           5.4118165    -0.6860955    -1.5983879
C           6.1216235     0.5300132     0.0113457
H           7.1557246     0.4878622    -0.3206640
24
312_C10H14_0-4-19-11 (0,) energy =    -389.4976845
C           1.3834707    -1.1632498    -1.0124295
H           0.8458227    -0.2211208    -1.1586020
H           1.1230541    -1.5604933    -0.0273603
H           1.0016637    -1.8693008    -1.7592552
C           2.8953140    -1.0117114    -1.2123549
H           3.0562350    -0.6473456    -2.2367123
H           3.3286357    -2.0222775    -1.2066677
C           5.7513833     1.3290541     1.1014520
H           6.4924627     1.9082212     1.6459443
C           4.4215826     1.3382880     1.5017368
H           4.1324174     1.9311022     2.3675229
C           3.4168846     0.6120754     0.8322471
C           2.0279325     0.6896629     1.4483855
H           1.2445837     0.6195044     0.6939685
H           1.9141019     1.6805191     1.9058258
C           1.7948250    -0.3750601     2.5362678
H           0.7959985    -0.2731500     2.9771721
H           2.5328250    -0.2782907     3.3405739
H           1.8852700    -1.3888594     2.1305844
C           3.7810524    -0.1548163    -0.2964219
C           5.1352487    -0.1476159    -0.6871491
H           5.4196064    -0.7318177    -1.5608434
C           6.1137358     0.5706587    -0.0123513
H           7.1449187     0.5430277    -0.3548308
24
312_C10H14_0-4-19-11 (15,) energy =    -389.4986048
C           1.3734808    -1.0322408    -1.0785537
H           1.0036401    -0.0321987    -1.3298536
H           0.9500234    -1.3251450    -0.1146649
H           0.9746925    -1.7238077    -1.8300196
C           2.9045834    -1.1063304    -1.1082206
H           3.2193445    -0.9659418    -2.1502079
H           3.1894483    -2.1425705    -0.8685948
C           5.7328713     1.4244777     1.0323265
H           6.4631736     2.0523216     1.5359052
C           4.4091485     1.4120968     1.4558595
H           4.1162372     2.0343407     2.2992156
C           3.4192040     0.6234862     0.8397655
C           2.0418314     0.6575509     1.4839531
H           1.2459500     0.6565147     0.7377248
H           1.9420227     1.6066097     2.0248542
C           1.8184589    -0.4942659     2.4809519
H           0.8272355    -0.4246143     2.9446841
H           2.5697987    -0.4684574     3.2781857
H           1.8952658    -1.4715042     1.9911183
C           3.7896226    -0.1839583    -0.2600004
C           5.1347476    -0.1520309    -0.6758180
H           5.4233894    -0.7621570    -1.5299806
C           6.1018613     0.6244948    -0.0485264
H           7.1275217     0.6137449    -0.4080896
24
312_C10H14_0-4-19-11 (30,) energy =    -389.5002734
C           1.3987375    -0.9159185    -1.1355915
H           1.2082771     0.1033450    -1.4905346
H           0.8319538    -1.0706026    -0.2149629
H           0.9901041    -1.6055795    -1.8833539
C           2.9007163    -1.1912446    -0.9714908
H           3.3304779    -1.2907645    -1.9751649
H           3.0107944    -2.1894232    -0.5183733
C           5.7143678     1.5154275     0.9601948
H           6.4342808     2.1899738     1.4161389
C           4.4025167     1.4749894     1.4229246
H           4.1115428     2.1213097     2.2484226
C           3.4288525     0.6262658     0.8689216
C           2.0646133     0.6222904     1.5399859
H           1.2589315     0.7088582     0.8067172
H           1.9906866     1.5175703     2.1690067
C           1.8281427    -0.6141221     2.4257428
H           0.8461680    -0.5651644     2.9111316
H           2.5916392    -0.6809224     3.2087783
H           1.8708904    -1.5429026     1.8460354
C           3.7996880    -0.2156029    -0.2069356
C           5.1289493    -0.1547566    -0.6622988
H           5.4175636    -0.7882588    -1.4988439
C           6.0840395     0.6826724    -0.0935146
H           7.0996296     0.6926948    -0.4805900
24
312_C10H14_0-4-19-11 (45,) energy =    -389.5021485
C           1.4636212    -0.7943127    -1.2058952
H           1.4454270     0.1990949    -1.6685598
H           0.7910705    -0.7814782    -0.3454140
H           1.0456161    -1.5047798    -1.9284084
C           2.8961678    -1.2199271    -0.8408468
H           3.4030569    -1.5216196    -1.7644637
H           2.8363928    -2.1378831    -0.2362330
C           5.7063284     1.5823454     0.9470985
H           6.4202162     2.2811296     1.3751923
C           4.4146484     1.4993750     1.4621449
H           4.1350425     2.1381416     2.2973493
C           3.4514361     0.6180333     0.9464804
C           2.1013188     0.5829207     1.6451519
H           1.2863462     0.7309140     0.9300850
H           2.0509961     1.4378199     2.3301073
C           1.8487459    -0.7010104     2.4550094
H           0.8815131    -0.6508924     2.9687377
H           2.6283265    -0.8414758     3.2119257
H           1.8421703    -1.5922164     1.8186168
C           3.8106593    -0.2160592    -0.1410452
C           5.1165497    -0.1131519    -0.6483053
H           5.3953509    -0.7419749    -1.4913193
C           6.0630563     0.7616230    -0.1191557
H           7.0622225     0.8052807    -0.5446952
24
312_C10H14_0-4-19-11 (60,) energy =    -389.5048908
C           1.5954098    -0.4972972    -1.6397359
H           1.9591690     0.2390814    -2.3656577
H           0.9612587     0.0341749    -0.9269414
H           0.9649695    -1.2156598    -2.1768640
C           2.7736822    -1.2249959    -0.9648555
H           3.3443503    -1.7587657    -1.7329775
H           2.3641542    -2.0048427    -0.3050309
C           5.5460108     1.5089196     0.9507111
H           6.2328378     2.2267478     1.3915938
C           4.2540348     1.3760308     1.4542634
H           3.9457368     1.9894241     2.2990715
C           3.3329544     0.4669840     0.9129893
C           2.0136965     0.2868285     1.6464331
H           1.2521975    -0.1572162     1.0027072
H           1.6283605     1.2699860     1.9472091
C           2.1667399    -0.5948113     2.9008723
H           1.2063925    -0.7100145     3.4172756
H           2.8820651    -0.1573673     3.6059577
H           2.5330807    -1.5932752     2.6361412
C           3.7278450    -0.3311284    -0.1850071
C           5.0347011    -0.1859233    -0.6780615
H           5.3385635    -0.7873299    -1.5323551
C           5.9449785     0.7085797    -0.1183962
H           6.9495622     0.7899837    -0.5252403
24
312_C10H14_0-4-19-11 (75,) energy =    -389.5078964
C           2.1883971    -1.1543900    -1.7576390
H           3.0497410    -1.1999313    -2.4336752
H           1.7993164    -0.1320601    -1.7920977
H           1.4139764    -1.8240168    -2.1499036
C           2.5947793    -1.5696093    -0.3308806
H           2.9563998    -2.6045528    -0.3529196
H           1.6997398    -1.5768418     0.3048106
C           5.7860949     0.9186841     1.2254107
H           6.5939639     1.5482203     1.5893096
C           4.4754245     1.3934724     1.2242299
H           4.2696194     2.3961904     1.5944495
C           3.4062409     0.6146086     0.7602954
C           1.9997926     1.1740763     0.8835091
H           1.3526338     0.7957345     0.0866380
H           2.0369411     2.2632024     0.7550456
C           1.3548772     0.8571316     2.2462721
H           0.3466828     1.2830091     2.3110372
H           1.9527907     1.2698439     3.0664002
H           1.2774568    -0.2241702     2.4069418
C           3.6703926    -0.6873381     0.2793813
C           4.9935713    -1.1512241     0.2868189
H           5.1986548    -2.1515072    -0.0896058
C           6.0468049    -0.3677791     0.7566714
H           7.0609637    -0.7586673     0.7514054
24
312_C10H14_0-4-19-11 (90,) energy =    -389.5085979
C           2.2893636    -1.2671799    -1.8042292
H           3.1982517    -1.4623811    -2.3841559
H           1.9922159    -0.2301893    -1.9978965
H           1.4965000    -1.9235837    -2.1817168
C           2.5360062    -1.5075156    -0.3031896
H           2.8052303    -2.5609228    -0.1550569
H           1.6011103    -1.3548493     0.2466210
C           5.7929494     0.9201482     1.2075072
H           6.6147435     1.5297409     1.5741313
C           4.4852148     1.3970902     1.2741378
H           4.2957635     2.3829823     1.6947028
C           3.3987206     0.6419088     0.8097344
C           1.9994257     1.2132948     0.9549045
H           1.3628674     0.8986232     0.1204543
H           2.0563772     2.3073755     0.8955363
C           1.3254899     0.8247666     2.2840989
H           0.3254866     1.2675629     2.3609746
H           1.9187412     1.1728136     3.1370069
H           1.2230878    -0.2623383     2.3768865
C           3.6433621    -0.6354182     0.2615504
C           4.9639340    -1.1031877     0.2006744
H           5.1512397    -2.0895953    -0.2197216
C           6.0346404    -0.3419629     0.6656199
H           7.0473272    -0.7323125     0.6066473
24
312_C10H14_0-4-19-11 (105,) energy =    -389.5080473
C           2.3998867    -1.4074763    -1.8467484
H           3.3398367    -1.7533629    -2.2906903
H           2.2110436    -0.3952864    -2.2226963
H           1.5949871    -2.0593651    -2.2060209
C           2.4752495    -1.4222258    -0.3091211
H           2.6287948    -2.4572874     0.0243085
H           1.5101035    -1.1144298     0.1030384
C           5.7917554     0.9318410     1.1932242
H           6.6288372     1.5180657     1.5633219
C           4.4919918     1.4185135     1.3110245
H           4.3239028     2.3890002     1.7741478
C           3.3845053     0.6939098     0.8444517
C           1.9984246     1.2828551     1.0395442
H           1.3546282     1.0519404     0.1829014
H           2.0820500     2.3763667     1.0660582
C           1.3149188     0.8082893     2.3351791
H           0.3276816     1.2711055     2.4500077
H           1.9183987     1.0711449     3.2111363
H           1.1822495    -0.2794177     2.3419907
C           3.6015435    -0.5617597     0.2387184
C           4.9157373    -1.0406816     0.1287624
H           5.0814129    -2.0134529    -0.3308524
C           6.0059190    -0.3105522     0.5957957
H           7.0121709    -0.7094502     0.4971077
24
312_C10H14_0-4-19-11 (120,) energy =    -389.5072454
C           2.4827051    -1.5730965    -1.8495614
H           3.4100466    -2.0773632    -2.1410535
H           2.4359713    -0.6256326    -2.3984774
H           1.6445535    -2.1982320    -2.1786166
C           2.4203096    -1.3346496    -0.3304978
H           2.4290763    -2.3094774     0.1776816
H           1.4581592    -0.8793697    -0.0823379
C           5.7930843     0.9406323     1.1801516
H           6.6427264     1.5045863     1.5561690
C           4.5007578     1.4343745     1.3391453
H           4.3508007     2.3880205     1.8415672
C           3.3769760     0.7384288     0.8668918
C           2.0032334     1.3367690     1.1150901
H           1.3556771     1.1995328     0.2409303
H           2.1117377     2.4211895     1.2393527
C           1.3054968     0.7648514     2.3626976
H           0.3306194     1.2414037     2.5193961
H           1.9142253     0.9320590     3.2583016
H           1.1436108    -0.3149762     2.2717080
C           3.5694245    -0.4938959     0.2055707
C           4.8772359    -0.9814479     0.0582187
H           5.0288648    -1.9380185    -0.4375201
C           5.9827174    -0.2812017     0.5344874
H           6.9824150    -0.6874965     0.4041693
24
312_C10H14_0-4-19-11 (135,) energy =    -389.5065306
C           2.5277839    -1.7295536    -1.8275081
H           3.3668190    -2.4240924    -1.9374676
H           2.6977147    -0.8919501    -2.5132956
H           1.6231985    -2.2562167    -2.1522858
C           2.3669233    -1.2348378    -0.3806741
H           2.2012047    -2.1049271     0.2721555
H           1.4484190    -0.6445772    -0.3187247
C           5.7881044     0.9521206     1.1655494
H           6.6456182     1.4954620     1.5538431
C           4.4997848     1.4418979     1.3662643
H           4.3609695     2.3720202     1.9138116
C           3.3667020     0.7725928     0.8796855
C           2.0005300     1.3636872     1.1808688
H           1.3542502     1.3206091     0.2955228
H           2.1242945     2.4295034     1.4081103
C           1.2864964     0.6861150     2.3644930
H           0.3188408     1.1622723     2.5618271
H           1.8924369     0.7563414     3.2747123
H           1.1059532    -0.3766206     2.1693090
C           3.5424121    -0.4300447     0.1576727
C           4.8463324    -0.9121067    -0.0324432
H           4.9938020    -1.8410329    -0.5769826
C           5.9614990    -0.2382852     0.4613526
H           6.9571788    -0.6413211     0.2949558
24
312_C10H14_0-4-19-11 (150,) energy =    -389.5064102
C           2.5724762    -1.8691809    -1.7763519
H           3.2753158    -2.7016899    -1.6662830
H           2.9699642    -1.1940096    -2.5424307
H           1.6314047    -2.2883987    -2.1493033
C           2.3312299    -1.1285914    -0.4532917
H           1.9692636    -1.8513633     0.2933937
H           1.5012961    -0.4291489    -0.6015029
C           5.7851179     0.9535007     1.1694117
H           6.6471042     1.4759387     1.5760550
C           4.4987363     1.4345063     1.4061021
H           4.3666850     2.3371342     1.9994296
C           3.3612513     0.7919946     0.8975919
C           1.9986975     1.3681947     1.2391658
H           1.3492079     1.3806939     0.3548810
H           2.1273403     2.4176472     1.5307650
C           1.2822696     0.6239568     2.3807740
H           0.3180902     1.0939217     2.6075946
H           1.8895379     0.6358432     3.2927077
H           1.0929312    -0.4234541     2.1227729
C           3.5272791    -0.3762839     0.1158497
C           4.8282337    -0.8449623    -0.1160216
H           4.9733226    -1.7370852    -0.7177279
C           5.9493189    -0.1975498     0.4025894
H           6.9428033    -0.5904275     0.2021426
24
312_C10H14_0-4-19-11 (165,) energy =    -389.5067922
C           2.6079439    -1.9708618    -1.7309874
H           3.1894748    -2.8416138    -1.4085023
H           3.1631943    -1.4743265    -2.5347372
H           1.6685663    -2.3446308    -2.1526293
C           2.3161758    -1.0090184    -0.5737838
H           1.7588864    -1.5515899     0.2037768
H           1.6214037    -0.2413647    -0.9382621
C           5.7749865     0.9414628     1.1950743
H           6.6358828     1.4379754     1.6351172
C           4.4880395     1.4138428     1.4495152
H           4.3538188     2.2831763     2.0904702
C           3.3538446     0.8028666     0.8997854
C           1.9885516     1.3528679     1.2700716
H           1.3091149     1.3210425     0.4100634
H           2.0956667     2.4127003     1.5320997
C           1.3353146     0.6167052     2.4550283
H           0.3592219     1.0539650     2.6957958
H           1.9669774     0.6815371     3.3479273
H           1.1829278    -0.4454697     2.2349526
C           3.5209147    -0.3215674     0.0557406
C           4.8208544    -0.7808334    -0.1944022
H           4.9684337    -1.6364603    -0.8456035
C           5.9405175    -0.1660234     0.3677682
H           6.9341812    -0.5501416     0.1517944
24
312_C10H14_0-4-19-11 (180,) energy =    -389.5071961
C           2.5991481    -2.0436090    -1.6503023
H           3.0895674    -2.8854280    -1.1484811
H           3.2396157    -1.7276260    -2.4813827
H           1.6609890    -2.4136478    -2.0776780
C           2.3146579    -0.8914203    -0.6820004
H           1.6121717    -1.2457267     0.0847518
H           1.7692083    -0.1081810    -1.2280785
C           5.7672446     0.9252271     1.2325841
H           6.6255372     1.3917208     1.7090813
C           4.4787984     1.3842292     1.5053421
H           4.3400863     2.2127123     2.1975877
C           3.3501278     0.8086571     0.9098124
C           1.9788860     1.3342889     1.2932138
H           1.2903461     1.2793040     0.4423297
H           2.0656404     2.3983723     1.5461130
C           1.3605316     0.5925643     2.4936800
H           0.3756451     1.0046239     2.7429186
H           2.0012592     0.6833252     3.3777952
H           1.2365588    -0.4760611     2.2858948
C           3.5223713    -0.2615565     0.0000930
C           4.8222966    -0.7098508    -0.2662388
H           4.9744795    -1.5276759    -0.9632200
C           5.9378415    -0.1304628     0.3411915
H           6.9328223    -0.5032313     0.1118504
