20
455_C8H8N4_4-5-12-13 (-165,) energy =    -528.6633116
C           5.9829905     1.0118507     0.0319195
H           6.8981331     1.5939849     0.0470449
C           5.9495613    -0.3283664     0.4236987
H           6.8537824    -0.8365289     0.7572704
N           4.8379403    -1.0605937     0.4081974
C           3.7157114    -0.4361296     0.0020457
N           3.6364416     0.8470862    -0.4019611
C           4.7710882     1.5524446    -0.3850316
H           4.6985560     2.5880081    -0.7151487
C           1.0766292    -2.8086178     0.3762204
H           0.6949180    -3.7409803     0.7708843
N           2.3521199    -2.4011325     0.6181458
C           2.4820897    -1.2313679     0.0011433
N           1.3120489    -0.8740205    -0.6464334
C           1.0101500     0.3040770    -1.4555672
H           1.0143691     1.2078863    -0.8445492
H           0.0228400     0.1604154    -1.9006561
H           1.7506375     0.4261226    -2.2476098
C           0.4166800    -1.8853290    -0.4051543
H          -0.5861146    -1.8547099    -0.8060943
20
455_C8H8N4_4-5-12-13 (-150,) energy =    -528.6622392
C           5.9650886     1.0258812     0.0259087
H           6.8808985     1.6072783     0.0240590
C           5.9642950    -0.3530606     0.2434989
H           6.8943370    -0.8945437     0.4128513
N           4.8509649    -1.0852877     0.2433149
C           3.6989884    -0.4183189     0.0450307
N           3.5858682     0.9037288    -0.1906457
C           4.7216130     1.6077739    -0.2014807
H           4.6246274     2.6753575    -0.3947443
C           1.0417771    -2.7634267     0.4804526
H           0.6427611    -3.6686122     0.9187156
N           2.3093774    -2.3397558     0.7482012
C           2.4610774    -1.2103431     0.0677212
N           1.3243831    -0.8995069    -0.6528808
C           1.0720788     0.2337801    -1.5371102
H           0.9762766     1.1597858    -0.9673287
H           0.1483857     0.0363831    -2.0858412
H           1.8919225     0.3523724    -2.2479939
C           0.4162172    -1.8944288    -0.3858321
H          -0.5661284    -1.8941926    -0.8355236
20
455_C8H8N4_4-5-12-13 (-135,) energy =    -528.6601686
C           5.9492392     1.0352055     0.0202114
H           6.8681106     1.6115410    -0.0009217
C           5.9530303    -0.3589535     0.0712562
H           6.8877794    -0.9181374     0.0809039
N           4.8335312    -1.0846636     0.0906619
C           3.6791374    -0.3957264     0.0930478
N           3.5587375     0.9438219     0.0165959
C           4.6973422     1.6428037    -0.0213596
H           4.5968072     2.7255175    -0.0840423
C           0.9929451    -2.7085552     0.5614488
H           0.5713417    -3.5862445     1.0330494
N           2.2491737    -2.2671050     0.8673371
C           2.4313890    -1.1796928     0.1325073
N           1.3398656    -0.9187266    -0.6673507
C           1.1490944     0.1724133    -1.6153569
H           1.0336339     1.1250144    -1.0944012
H           0.2554007    -0.0386923    -2.2064801
H           2.0073026     0.2468475    -2.2875268
C           0.4150482    -1.8973047    -0.3881034
H          -0.5426778    -1.9252694    -0.8871571
20
455_C8H8N4_4-5-12-13 (-120,) energy =    -528.6574978
C           5.6669681     1.0726061     0.1588898
H           6.5952271     1.6333702     0.1903416
C           5.6460669    -0.3113827    -0.0062864
H           6.5690553    -0.8776337    -0.1230777
N           4.5119157    -1.0160329    -0.0510078
C           3.3741620    -0.3210098     0.1084483
N           3.2763220     1.0157518     0.2341807
C           4.4263377     1.6972048     0.2579939
H           4.3445168     2.7782282     0.3611187
C           0.6349964    -2.6029047     0.4432477
H           0.1650087    -3.4511339     0.9228565
N           1.8563297    -2.1374629     0.8525982
C           2.1095127    -1.0921292     0.0827829
N           1.1042799    -0.8760544    -0.8310798
C           1.0511719     0.1319601    -1.8813931
H           1.4983258     1.0568833    -1.5158188
H           0.0065819     0.3184879    -2.1409898
H           1.5849297    -0.2037710    -2.7778674
C           0.1559823    -1.8474374    -0.6002339
H          -0.7471486    -1.9039043    -1.1903583
20
455_C8H8N4_4-5-12-13 (-105,) energy =    -528.6547929
C           5.6526775     1.0904850     0.1630686
H           6.5834039     1.6476114     0.1888768
C           5.6080533    -0.2509801    -0.2110896
H           6.5109958    -0.7845320    -0.5043273
N           4.4693047    -0.9509005    -0.2472213
C           3.3589869    -0.2972997     0.1274170
N           3.2804585     1.0019246     0.4637239
C           4.4323801     1.6819804     0.4801735
H           4.3684146     2.7335908     0.7556854
C           0.5731126    -2.5230397     0.5290884
H           0.0717004    -3.3257377     1.0530433
N           1.7875619    -2.0428775     0.9535429
C           2.0874146    -1.0694175     0.1142645
N           1.1261738    -0.9091108    -0.8526487
C           1.1410631     0.0281738    -1.9653790
H           1.5955159     0.9670376    -1.6434373
H           0.1137348     0.2261893    -2.2795134
H           1.7019191    -0.3742165    -2.8166656
C           0.1483594    -1.8449525    -0.5864020
H          -0.7336051    -1.9301617    -1.2043018
20
455_C8H8N4_4-5-12-13 (-90,) energy =    -528.6534873
C           5.6421213     1.1130789     0.1943722
H           6.5762281     1.6636456     0.2366373
C           5.5449378    -0.1235267    -0.4394050
H           6.4067652    -0.5784065    -0.9254289
N           4.4015623    -0.8158271    -0.4913717
C           3.3409973    -0.2583650     0.1134291
N           3.3132928     0.9380033     0.7215709
C           4.4694488     1.6103072     0.7578767
H           4.4480757     2.5791542     1.2545679
C           0.5034010    -2.4019339     0.6233170
H          -0.0315374    -3.1393842     1.2066004
N           1.7209481    -1.9132951     1.0352580
C           2.0737740    -1.0440690     0.1091029
N           1.1359887    -0.9395047    -0.8856553
C           1.2171891    -0.1220374    -2.0852663
H           1.7002201     0.8291728    -1.8497528
H           0.2076317     0.0832224    -2.4485617
H           1.7858772    -0.6271660    -2.8738262
C           0.1232408    -1.8196363    -0.5591903
H          -0.7480675    -1.9353444    -1.1870892
20
455_C8H8N4_4-5-12-13 (-75,) energy =    -528.6548303
C           5.8774454     1.0492766     0.0837544
H           6.8200428     1.5867062     0.0867939
C           5.6592487    -0.0479655    -0.7457330
H           6.4299297    -0.4026579    -1.4284617
N           4.5081534    -0.7292383    -0.7456860
C           3.5539157    -0.2886249     0.0922494
N           3.6491621     0.7671604     0.9146373
C           4.8144600     1.4227898     0.9034396
H           4.8925752     2.2772865     1.5740424
C           0.6961000    -2.3067357     0.8849560
H           0.1593695    -2.9615390     1.5583474
N           1.9359028    -1.8121407     1.2076933
C           2.3000989    -1.0863519     0.1673302
N           1.3384572    -1.0715099    -0.8118865
C           1.3746362    -0.3437574    -2.0710484
H           0.9944789     0.6772889    -1.9519994
H           0.7597876    -0.8678233    -2.8065252
H           2.4019461    -0.3068685    -2.4383773
C           0.3032648    -1.8583355    -0.3517980
H          -0.5889148    -2.0175650    -0.9396596
20
455_C8H8N4_4-5-12-13 (-60,) energy =    -528.6576178
C           5.8634813     1.0550014     0.0972957
H           6.8137950     1.5784519     0.0942879
C           5.5447939     0.1030794    -0.8679727
H           6.2417331    -0.1481383    -1.6661812
N           4.3855896    -0.5625531    -0.8627420
C           3.5171612    -0.2473027     0.1166373
N           3.7154628     0.6628250     1.0833650
C           4.8895411     1.2999661     1.0638664
H           5.0501066     2.0354969     1.8508836
C           0.6316437    -2.2003872     0.9400242
H           0.0651179    -2.7998863     1.6400708
N           1.8522302    -1.6757322     1.2738560
C           2.2675234    -1.0396068     0.1913176
N           1.3452545    -1.1080628    -0.8265960
C           1.4187649    -0.4806644    -2.1389811
H           1.0430630     0.5484599    -2.1067171
H           0.8135368    -1.0563300    -2.8431882
H           2.4550037    -0.4804789    -2.4790717
C           0.2931730    -1.8553611    -0.3468278
H          -0.5735763    -2.0651357    -0.9566035
20
455_C8H8N4_4-5-12-13 (-45,) energy =    -528.6602737
C           5.8674142     1.0605299     0.1074413
H           6.8244830     1.5711601     0.0955370
C           5.4546808     0.2456798    -0.9433059
H           6.0820510     0.0925342    -1.8202655
N           4.2861606    -0.4021729    -0.9322116
C           3.5003617    -0.2092880     0.1454278
N           3.7946622     0.5655164     1.2033430
C           4.9759481     1.1853375     1.1727203
H           5.2127849     1.8096494     2.0333239
C           0.5840311    -2.1005970     0.9795133
H          -0.0081393    -2.6540379     1.6961524
N           1.7817105    -1.5406391     1.3243499
C           2.2414579    -0.9765996     0.2167744
N           1.3649499    -1.1367814    -0.8349570
C           1.4562622    -0.5892303    -2.1836377
H           1.0744908     0.4376730    -2.2158667
H           0.8591653    -1.2094096    -2.8562528
H           2.4969250    -0.6016939    -2.5054920
C           0.3004612    -1.8551617    -0.3443742
H          -0.5386936    -2.1171328    -0.9724489
20
455_C8H8N4_4-5-12-13 (-30,) energy =    -528.6623154
C           5.8379507     1.1430515     0.1068528
H           6.7875412     1.6663149     0.0718770
C           5.3202266     0.4791706    -1.0012040
H           5.8552259     0.4620644    -1.9498696
N           4.1582136    -0.1797038    -0.9661862
C           3.4864820    -0.1547549     0.2020379
N           3.8895085     0.4640642     1.3269432
C           5.0599691     1.0979133     1.2650524
H           5.3851519     1.5948538     2.1783716
C           0.5626672    -2.0298501     1.0316667
H          -0.0543606    -2.5488756     1.7531578
N           1.7345350    -1.4339755     1.3918393
C           2.2300870    -0.9138756     0.2758165
N           1.3942521    -1.1403035    -0.8003019
C           1.5491176    -0.7285417    -2.1917720
H           1.7998386     0.3323215    -2.2494600
H           0.5996614    -0.9000361    -2.7040348
H           2.3438231    -1.2951879    -2.6803751
C           0.3282455    -1.8566445    -0.3144978
H          -0.4823902    -2.1649036    -0.9587498
20
455_C8H8N4_4-5-12-13 (-15,) energy =    -528.6633336
C           5.8375904     1.1595750     0.1195172
H           6.7891333     1.6793210     0.0876919
C           5.2302399     0.6606198    -1.0280964
H           5.6929822     0.7752244    -2.0075726
N           4.0619986     0.0128505    -0.9999760
C           3.4783054    -0.1301163     0.2062688
N           3.9753577     0.3201456     1.3743602
C           5.1453009     0.9523547     1.3147732
H           5.5443956     1.3124534     2.2624950
C           0.5028373    -1.9210029     1.0273368
H          -0.1458386    -2.3900535     1.7553329
N           1.6639193    -1.3132104     1.3934879
C           2.2056571    -0.8586675     0.2683705
N           1.4104991    -1.1542315    -0.8253523
C           1.6017702    -0.8342770    -2.2377242
H           1.7767421     0.2346678    -2.3692090
H           0.6933377    -1.1218474    -2.7721078
H           2.4590350    -1.3714089    -2.6461920
C           0.3231245    -1.8330367    -0.3359209
H          -0.4634077    -2.1795717    -0.9905627
20
455_C8H8N4_4-5-12-13 (0,) energy =    -528.6635990
C           5.9413014     1.0149205    -0.2118210
H           6.8440360     1.6044838    -0.0933518
C           4.7029066     1.4616100     0.2364956
H           4.5951338     2.4286771     0.7262440
N           3.5850257     0.7433932     0.0966301
C           3.7062248    -0.4549712    -0.5077584
N           4.8543919    -0.9800234    -0.9781026
C           5.9499514    -0.2407605    -0.8240445
H           6.8754433    -0.6703638    -1.2063184
C           1.1861123    -2.8803758    -1.2126517
H           0.8845071    -3.8364064    -1.6199197
N           2.4797743    -2.4635927    -1.2529558
C           2.4953009    -1.2663992    -0.6748534
N           1.2267857    -0.8968929    -0.2579327
C           0.7710313     0.3159642     0.4178539
H           1.2736478     0.4363407     1.3785305
H          -0.3063431     0.2248416     0.5744922
H           0.9815056     1.1989010    -0.1871710
C           0.3945555    -1.9311988    -0.6031668
H          -0.6638326    -1.8946620    -0.3892573
20
455_C8H8N4_4-5-12-13 (15,) energy =    -528.6633336
C           5.9433570     1.0072711    -0.1995101
H           6.8456891     1.5978510    -0.0829130
C           4.7488604     1.3534815     0.4235182
H           4.6770854     2.2374886     1.0559880
N           3.6333200     0.6298551     0.2926816
C           3.7097315    -0.4632931    -0.4917622
N           4.8106915    -0.8823221    -1.1448594
C           5.9083737    -0.1461004    -0.9864995
H           6.7968977    -0.4905078    -1.5147352
C           1.2066451    -2.9341413    -1.0953379
H           0.9145093    -3.9164105    -1.4425714
N           2.5021994    -2.5199193    -1.1346875
C           2.5046768    -1.2891386    -0.6335381
N           1.2280907    -0.8917070    -0.2754322
C           0.7634613     0.3723821     0.2902070
H           1.1502035     0.5125222     1.3006775
H          -0.3285993     0.3491403     0.3095818
H           1.0974370     1.2124662    -0.3207477
C           0.4014696    -1.9458512    -0.5723841
H          -0.6622996    -1.8933151    -0.3909721
20
455_C8H8N4_4-5-12-13 (30,) energy =    -528.6623154
C           5.9334713     1.0054905    -0.1812697
H           6.8334446     1.6001719    -0.0665878
C           4.7944494     1.2359319     0.5842965
H           4.7671620     2.0282005     1.3313231
N           3.6849036     0.5015375     0.4610561
C           3.7086358    -0.4745871    -0.4680350
N           4.7495037    -0.7739036    -1.2666477
C           5.8468649    -0.0348358    -1.1080595
H           6.6889537    -0.2819504    -1.7535563
C           1.2330238    -2.9948448    -0.9901482
H           0.9522772    -3.9979347    -1.2828118
N           2.5318075    -2.5816649    -1.0126888
C           2.5157166    -1.3250747    -0.5857177
N           1.2302295    -0.9042402    -0.3058239
C           0.7672696     0.3968584     0.1659079
H           1.0550240     0.5599176     1.2060936
H          -0.3206368     0.4246674     0.0711625
H           1.1992172     1.1968746    -0.4382564
C           0.4107805    -1.9754887    -0.5636024
H          -0.6589219    -1.9108265    -0.4265999
20
455_C8H8N4_4-5-12-13 (45,) energy =    -528.6602737
C           5.9388572     0.9576274    -0.1080766
H           6.8535282     1.5292839     0.0079036
C           4.8802533     1.0724682     0.7889008
H           4.9335098     1.7457219     1.6433000
N           3.7560175     0.3608737     0.6664145
C           3.6792647    -0.4668660    -0.3942206
N           4.6329818    -0.6412506    -1.3248829
C           5.7515706     0.0688157    -1.1663986
H           6.5238433    -0.0775992    -1.9204892
C           1.2082757    -2.9992228    -0.9032535
H           0.9377496    -4.0156619    -1.1566331
N           2.5125263    -2.5926765    -0.8797793
C           2.4811042    -1.3216122    -0.5060956
N           1.1893968    -0.8841199    -0.3057080
C           0.7266789     0.4609464     0.0164386
H           1.4337629     0.9286349     0.7005614
H          -0.2524621     0.3906970     0.4959238
H           0.6346965     1.0707459    -0.8896531
C           0.3731011    -1.9597637    -0.5636415
H          -0.7014587    -1.8828709    -0.4818125
20
455_C8H8N4_4-5-12-13 (60,) energy =    -528.6576178
C           5.9292335     0.9602905    -0.1010585
H           6.8457038     1.5324538    -0.0019796
C           4.9591542     0.9460025     0.8980422
H           5.0863756     1.5148528     1.8179309
N           3.8355887     0.2290726     0.7957642
C           3.6700345    -0.4674134    -0.3445135
N           4.5303516    -0.5102113    -1.3741936
C           5.6525308     0.2016323    -1.2371482
H           6.3509094     0.1630180    -2.0719888
C           1.2048703    -3.0255779    -0.7888952
H           0.9366488    -4.0544791    -0.9884828
N           2.5144531    -2.6290376    -0.7234237
C           2.4753547    -1.3388251    -0.4356112
N           1.1838793    -0.8758093    -0.3401039
C           0.7431744     0.4917954    -0.1017265
H           1.4405141     0.9797908     0.5802047
H          -0.2478890     0.4715181     0.3576009
H           0.6887617     1.0584741    -1.0383182
C           0.3657467    -1.9598679    -0.5658993
H          -0.7104482    -1.8681441    -0.5440560
20
455_C8H8N4_4-5-12-13 (75,) energy =    -528.6548303
C           5.9328362     0.9694844    -0.0833484
H           6.8491652     1.5447239    -0.0010655
C           5.0796516     0.7862583     1.0020563
H           5.3012549     1.2219205     1.9751774
N           3.9565908     0.0646333     0.9175251
C           3.6788777    -0.4685606    -0.2847333
N           4.4159946    -0.3366960    -1.3979933
C           5.5393270     0.3793375    -1.2826026
H           6.1392496     0.4827319    -2.1855849
C           1.2062642    -3.0411575    -0.6537923
H           0.9366371    -4.0804546    -0.7859509
N           2.5192910    -2.6519738    -0.5518539
C           2.4796218    -1.3448242    -0.3742300
N           1.1941408    -0.8638129    -0.3768354
C           0.7723747     0.5231523    -0.2549247
H           1.4574334     1.0526735     0.4098751
H          -0.2300204     0.5569376     0.1782869
H           0.7553546     1.0215211    -1.2309200
C           0.3710116    -1.9558958    -0.5563134
H          -0.7036088    -1.8524981    -0.5939894
20
455_C8H8N4_4-5-12-13 (90,) energy =    -528.6534871
C           5.8059869     0.8757255    -0.3014570
H           6.7379642     1.4293056    -0.2521531
C           5.1187510     0.4883564     0.8465949
H           5.4913752     0.7379532     1.8389285
N           3.9734796    -0.2011402     0.7996816
C           3.5179298    -0.5143510    -0.4233607
N           4.0786260    -0.1647975    -1.5917863
C           5.2221258     0.5257342    -1.5165727
H           5.6790757     0.8061606    -2.4644055
C           0.8917312    -2.9625390    -0.5520636
H           0.5587742    -3.9914289    -0.5792276
N           2.2290423    -2.6463272    -0.5022781
C           2.2706337    -1.3287537    -0.4887222
N           1.0187282    -0.7713947    -0.5340475
C           0.6848943     0.6428925    -0.4861610
H           0.6455721     1.0083409     0.5459830
H          -0.2884083     0.7981077    -0.9572681
H           1.4325083     1.2157073    -1.0397707
C           0.1261156    -1.8243867    -0.5698632
H          -0.9405773    -1.6585995    -0.6084475
20
455_C8H8N4_4-5-12-13 (105,) energy =    -528.6547930
C           5.7933544     0.8858692    -0.2649515
H           6.7159856     1.4546267    -0.2140962
C           5.2530158     0.2578539     0.8553942
H           5.7357878     0.3283575     1.8290167
N           4.1175828    -0.4467712     0.8081275
C           3.5298926    -0.5454395    -0.3941058
N           3.9384494     0.0526276    -1.5265896
C           5.0704283     0.7612890    -1.4487411
H           5.4024247     1.2429832    -2.3672216
C           0.8741180    -2.9585625    -0.3850276
H           0.5247528    -3.9803251    -0.3200362
N           2.2129798    -2.6574751    -0.3363728
C           2.2778846    -1.3457073    -0.4668212
N           1.0332299    -0.7774410    -0.5787134
C           0.7156842     0.6381010    -0.6895408
H           0.6628775     1.1121384     0.2971810
H          -0.2494892     0.7500876    -1.1888158
H           1.4795943     1.1356203    -1.2899661
C           0.1266917    -1.8158261    -0.5266656
H          -0.9367890    -1.6397172    -0.5967326
20
455_C8H8N4_4-5-12-13 (120,) energy =    -528.6574976
C           5.7988129     0.8805351    -0.2430524
H           6.7229319     1.4472401    -0.1987251
C           5.3718449     0.0808624     0.8158934
H           5.9512304     0.0088580     1.7353049
N           4.2349854    -0.6198518     0.7786262
C           3.5276374    -0.5442375    -0.3602064
N           3.8246011     0.2243948    -1.4247747
C           4.9588618     0.9284671    -1.3526819
H           5.1974675     1.5483901    -2.2156382
C           0.8642792    -2.9352641    -0.2548569
H           0.5085138    -3.9479848    -0.1198270
N           2.1979849    -2.6317441    -0.1845420
C           2.2754439    -1.3332582    -0.4240473
N           1.0335859    -0.7763030    -0.6239605
C           0.7071063     0.6253106    -0.8496734
H           0.6257078     1.1691384     0.0984347
H          -0.2485000     0.6864127    -1.3754746
H           1.4827598     1.0809108    -1.4659802
C           0.1255782    -1.8057238    -0.5146694
H          -0.9350069    -1.6353630    -0.6296553
20
455_C8H8N4_4-5-12-13 (135,) energy =    -528.6601686
C           5.9580235     1.0225420    -0.0062722
H           6.8517476     1.6350743     0.0484554
C           5.6565856     0.0677173     0.9651926
H           6.3101292    -0.0867106     1.8228453
N           4.5590111    -0.6895507     0.9184508
C           3.7585999    -0.5101238    -0.1466373
N           3.9370809     0.3992291    -1.1243651
C           5.0350993     1.1566309    -1.0398973
H           5.1762284     1.8915044    -1.8313193
C           1.1988936    -3.0050284    -0.0597641
H           0.8726979    -4.0200595     0.1240919
N           2.5047158    -2.6349747     0.0965817
C           2.5500145    -1.3504616    -0.2253126
N           1.3031590    -0.8658842    -0.5567265
C           0.9319879     0.4849591    -0.9606466
H           1.3334050     1.2167513    -0.2555078
H          -0.1577927     0.5560788    -0.9605627
H           1.3192901     0.7140736    -1.9554712
C           0.4372365    -1.9292450    -0.4551250
H          -0.6170676    -1.8181789    -0.6629296
20
455_C8H8N4_4-5-12-13 (150,) energy =    -528.6622392
C           5.9718840     1.0160801     0.0054200
H           6.8738062     1.6174667     0.0454724
C           5.7527812    -0.0486430     0.8813110
H           6.4857536    -0.3064770     1.6449438
N           4.6491088    -0.7947710     0.8519743
C           3.7460377    -0.4860607    -0.0969060
N           3.8475238     0.5270989    -0.9797180
C           4.9577946     1.2678104    -0.9137050
H           5.0335732     2.0867303    -1.6279313
C           1.1865589    -2.9718585     0.0436954
H           0.8562007    -3.9758845     0.2748752
N           2.4787702    -2.5836226     0.2372396
C           2.5354527    -1.3174183    -0.1566538
N           1.3019435    -0.8672006    -0.5852783
C           0.9209445     0.4513619    -1.0813548
H           1.2815900     1.2308261    -0.4076072
H          -0.1696400     0.4941778    -1.1268724
H           1.3425519     0.6327379    -2.0716393
C           0.4400202    -1.9286937    -0.4577215
H          -0.6037123    -1.8400813    -0.7222882
20
455_C8H8N4_4-5-12-13 (165,) energy =    -528.6633116
C           5.9865014     1.0067841     0.0213109
H           6.8964559     1.5963855     0.0520989
C           5.8356534    -0.1644190     0.7671788
H           6.6363450    -0.5235703     1.4129484
N           4.7258189    -0.8992174     0.7462804
C           3.7344972    -0.4631745    -0.0546312
N           3.7716221     0.6525011    -0.8096396
C           4.8950462     1.3740129    -0.7588605
H           4.9158327     2.2752567    -1.3703813
C           1.1533433    -2.9190498     0.1448209
H           0.8094064    -3.9057914     0.4255541
N           2.4355122    -2.5211806     0.3666132
C           2.5150452    -1.2788083    -0.0982734
N           1.3008775    -0.8579324    -0.6127709
C           0.9262573     0.4248541    -1.2025788
H           1.1812163     1.2457340    -0.5304911
H          -0.1533889     0.4141040    -1.3692283
H           1.4465840     0.5858229    -2.1478726
C           0.4330031    -1.9088195    -0.4544171
H          -0.5964586    -1.8398090    -0.7749379
20
455_C8H8N4_4-5-12-13 (180,) energy =    -528.6635992
C           5.9822166     1.0065596     0.0270581
H           6.8960967     1.5902707     0.0514849
C           5.8956422    -0.2627247     0.6042408
H           6.7548053    -0.7104084     1.1028482
N           4.7840376    -0.9938919     0.5846379
C           3.7175747    -0.4465290    -0.0302932
N           3.6915779     0.7660429    -0.6177300
C           4.8229199     1.4757193    -0.5813299
H           4.7921349     2.4543993    -1.0587085
C           1.1055756    -2.8598503     0.2555063
H           0.7430856    -3.8214199     0.5942585
N           2.3836639    -2.4580389     0.4875574
C           2.4893738    -1.2487183    -0.0546446
N           1.2951879    -0.8569032    -0.6376782
C           0.9481901     0.3760268    -1.3411878
H           1.0762874     1.2422903    -0.6907021
H          -0.0965233     0.2994513    -1.6514684
H           1.5831490     0.5137838    -2.2174157
C           0.4146099    -1.8892300    -0.4369125
H          -0.6021383    -1.8377729    -0.7986133
