19
060_C6H9N3O_16-0-2-7 (-165,) energy =    -473.5234874
C           4.7105254     0.5703688    -0.0905192
N           3.9104355     1.6092411    -0.1626560
N           4.9747372    -0.3973958    -1.0790025
C           5.5034967    -1.6726745    -0.6016161
H           4.9144234    -2.0331490     0.2490188
H           6.5558729    -1.5869019    -0.2925416
H           5.4535600    -2.4229523    -1.3857723
C           4.7092034    -0.1423990    -2.4365842
C           4.8775544    -1.3136408    -3.4017616
H           4.2242869    -2.1578893    -3.1528789
H           5.9095784    -1.6807792    -3.4389849
H           4.6055594    -0.9393794    -4.3890131
C           3.9566444     2.1912415     1.0863103
H           3.3814241     3.0815114     1.3012785
C           4.7768554     1.4935295     1.9291133
H           5.0576367     1.6214378     2.9633752
N           5.2513736     0.4342527     1.1694523
H           5.9580665    -0.2230550     1.4613818
O           4.3699585     0.9503685    -2.8403153
19
060_C6H9N3O_16-0-2-7 (-150,) energy =    -473.5254681
C           4.6406860     0.1310384    -0.1667825
N           4.3475307    -0.5183303     0.9362172
N           4.9134184    -0.4159194    -1.4413134
C           6.2923322    -0.2383858    -1.9231148
H           6.6359653     0.7657512    -1.6690747
H           6.3308541    -0.3389749    -3.0087045
H           6.9874969    -0.9579974    -1.4692131
C           4.1458479    -1.5174650    -1.8633244
C           4.7419995    -2.3764737    -2.9697711
H           5.7151232    -2.7945889    -2.6886420
H           4.8786305    -1.8091117    -3.8977869
H           4.0413813    -3.1907162    -3.1565483
C           4.3031496     0.4414134     1.9239137
H           4.0650400     0.1785559     2.9455815
C           4.6099927     1.6784447     1.4210646
H           4.6912393     2.6565614     1.8703773
N           4.8496603     1.4673405     0.0746828
H           4.9610348     2.1844941    -0.6274593
O           3.0439356    -1.7442642    -1.4052138
19
060_C6H9N3O_16-0-2-7 (-135,) energy =    -473.5284190
C           4.6865233     0.1234022    -0.1638906
N           4.5838174    -0.5289334     0.9716869
N           4.9702731    -0.4190090    -1.4378149
C           6.3784724    -0.3280905    -1.8541606
H           6.7644945     0.6539991    -1.5728472
H           6.4624944    -0.4251063    -2.9381479
H           7.0037578    -1.0919392    -1.3726064
C           4.1424920    -1.4589834    -1.8903121
C           4.6913738    -2.3250408    -3.0140101
H           5.6301736    -2.8153232    -2.7331067
H           4.8802223    -1.7388680    -3.9210684
H           3.9410506    -3.0846375    -3.2350937
C           4.4421750     0.4429747     1.9365206
H           4.3202222     0.1811886     2.9787656
C           4.4974190     1.6969954     1.3824973
H           4.4339417     2.6894561     1.8024019
N           4.6751578     1.4812648     0.0299212
H           4.6387084     2.1776861    -0.7005809
O           3.0254370    -1.6242445    -1.4392478
19
060_C6H9N3O_16-0-2-7 (-120,) energy =    -473.5307330
C           4.7397121     0.1182428    -0.1564912
N           4.8042714    -0.5054730     0.9983149
N           5.0363847    -0.4233496    -1.4281035
C           6.4608697    -0.4111910    -1.7903104
H           6.8814342     0.5589478    -1.5149557
H           6.5815040    -0.5371066    -2.8680232
H           7.0273779    -1.1929733    -1.2674576
C           4.1539768    -1.3954761    -1.9187191
C           4.6588690    -2.2638111    -3.0600194
H           5.5497382    -2.8338869    -2.7733856
H           4.9161154    -1.6651404    -3.9416022
H           3.8586536    -2.9560845    -3.3233551
C           4.5556918     0.4618197     1.9457823
H           4.5341570     0.2205492     2.9998259
C           4.3674601     1.6878000     1.3570288
H           4.1558579     2.6684141     1.7558593
N           4.5096149     1.4588611     0.0041973
H           4.3435110     2.1166714    -0.7437998
O           3.0244190    -1.5018808    -1.4777621
19
060_C6H9N3O_16-0-2-7 (-105,) energy =    -473.5325530
C           4.7986040     0.1258273    -0.1478274
N           5.0371336    -0.4262136     1.0207388
N           5.0841587    -0.4360287    -1.4136517
C           6.5124015    -0.5149977    -1.7484483
H           6.9812162     0.4397650    -1.4980124
H           6.6429849    -0.6853186    -2.8187121
H           7.0226701    -1.3082802    -1.1878252
C           4.1418751    -1.3360695    -1.9229570
C           4.5840459    -2.2103000    -3.0851351
H           5.4204074    -2.8609251    -2.8056614
H           4.9017375    -1.6110655    -3.9462273
H           3.7323336    -2.8262388    -3.3753820
C           4.7047820     0.5353593     1.9483535
H           4.7937323     0.3453583     3.0093183
C           4.2805915     1.6855371     1.3297061
H           3.9356658     2.6362469     1.7073015
N           4.3689878     1.4184125    -0.0200140
H           4.0577913     2.0071336    -0.7791448
O           3.0085186    -1.3782137    -1.4771066
19
060_C6H9N3O_16-0-2-7 (-90,) energy =    -473.5342919
C           4.8426942     0.1342958    -0.1405087
N           5.2446976    -0.3237289     1.0239257
N           5.1300430    -0.4402513    -1.3999707
C           6.5590052    -0.6134579    -1.6916003
H           7.0810965     0.3091354    -1.4279217
H           6.7069327    -0.7955611    -2.7574835
H           6.9986678    -1.4358361    -1.1147082
C           4.1431192    -1.2607368    -1.9529744
C           4.5531412    -2.1429993    -3.1203609
H           5.3387475    -2.8519371    -2.8360330
H           4.9286615    -1.5503124    -3.9625609
H           3.6695688    -2.6959878    -3.4406290
C           4.8290433     0.6150622     1.9427201
H           5.0223459     0.4890369     2.9992610
C           4.1819570     1.6534158     1.3204053
H           3.7081048     2.5494443     1.6918026
N           4.2259018     1.3485059    -0.0238079
H           3.7603246     1.8381689    -0.7742167
O           2.9959252    -1.2280464    -1.5388173
19
060_C6H9N3O_16-0-2-7 (-75,) energy =    -473.5366582
C           4.8856510     0.1507551    -0.1440230
N           5.4663760    -0.1701826     0.9905553
N           5.1771635    -0.4316318    -1.3981091
C           6.5987349    -0.7151132    -1.6364401
H           7.1825778     0.1388700    -1.2895403
H           6.7781124    -0.8461204    -2.7051058
H           6.9396825    -1.6048892    -1.0947451
C           4.1598578    -1.1710954    -2.0042247
C           4.5572570    -2.0925903    -3.1441354
H           5.2808993    -2.8496743    -2.8224599
H           5.0073507    -1.5343108    -3.9732321
H           3.6520783    -2.5863888    -3.4988970
C           4.9836321     0.7382351     1.9093671
H           5.2931667     0.7038027     2.9449045
C           4.1160530     1.6180201     1.3141654
H           3.5280691     2.4388740     1.6958767
N           4.0949124     1.2582843    -0.0185503
H           3.4480560     1.5812223    -0.7238335
O           2.9951586    -1.0353872    -1.6591002
19
060_C6H9N3O_16-0-2-7 (-60,) energy =    -473.5402348
C           4.9265256     0.1540091    -0.1340582
N           5.6481677    -0.0163928     0.9517068
N           5.2161223    -0.4319343    -1.3859143
C           6.6202272    -0.8162587    -1.5817398
H           7.2503753    -0.0280813    -1.1697770
H           6.8287339    -0.9152898    -2.6483428
H           6.8701335    -1.7523576    -1.0693788
C           4.1766295    -1.0782770    -2.0523596
C           4.5524852    -2.0331894    -3.1706205
H           5.2144415    -2.8336288    -2.8230158
H           5.0651538    -1.5088351    -3.9855558
H           3.6293826    -2.4671710    -3.5560846
C           5.1083965     0.8545965     1.8777138
H           5.5081593     0.9215145     2.8801631
C           4.0670235     1.5589039     1.3325222
H           3.3894229     2.2952892     1.7371590
N           3.9899015     1.1370983     0.0180934
H           3.2194884     1.2689251    -0.6229723
O           3.0066453    -0.8355745    -1.7806747
19
060_C6H9N3O_16-0-2-7 (-45,) energy =    -473.5441081
C           4.9641847     0.1597257    -0.1235417
N           5.7751823     0.1325618     0.9124602
N           5.2406745    -0.4605664    -1.3600441
C           6.6305951    -0.8991908    -1.5393470
H           7.2832383    -0.1468493    -1.0981638
H           6.8523556    -0.9895391    -2.6034987
H           6.8293009    -1.8542475    -1.0395410
C           4.1922483    -1.0188633    -2.0796183
C           4.5478949    -1.9746241    -3.2037234
H           5.1500475    -2.8192639    -2.8520850
H           5.1150125    -1.4679952    -3.9933401
H           3.6131530    -2.3455267    -3.6252003
C           5.1899223     0.9730127     1.8391557
H           5.6436200     1.1368683     2.8068561
C           4.0321119     1.5125746     1.3435114
H           3.2966498     2.1807982     1.7649061
N           3.9172391     1.0164068     0.0576838
H           3.1069780     1.0147026    -0.5485587
O           3.0248691    -0.7117963    -1.8511045
19
060_C6H9N3O_16-0-2-7 (-30,) energy =    -473.5471084
C           4.9882268     0.1784631    -0.1256496
N           5.8562277     0.2846227     0.8596594
N           5.2482342    -0.4990801    -1.3339862
C           6.6275251    -0.9708785    -1.5105759
H           7.2873177    -0.2808842    -0.9872865
H           6.8807799    -0.9850863    -2.5716126
H           6.7743651    -1.9705820    -1.0853741
C           4.2032655    -0.9781576    -2.1052879
C           4.5559998    -1.9150018    -3.2463519
H           5.1317032    -2.7831698    -2.9087082
H           5.1475189    -1.4018658    -4.0137209
H           3.6196313    -2.2512385    -3.6925582
C           5.2372845     1.1021489     1.7843399
H           5.7266873     1.3607152     2.7131715
C           4.0014895     1.4924157     1.3397703
H           3.2243283     2.1012060     1.7759625
N           3.8618450     0.9144607     0.0911475
H           3.0433127     0.8310514    -0.4995232
O           3.0380480    -0.6333963    -1.9093867
19
060_C6H9N3O_16-0-2-7 (-15,) energy =    -473.5489036
C           5.0220161     0.1734759    -0.0944822
N           5.9419235     0.4088573     0.8200647
N           5.2504540    -0.5744358    -1.2673727
C           6.6234754    -1.0575175    -1.4646492
H           7.2757484    -0.4642939    -0.8264709
H           6.9200366    -0.9354226    -2.5084854
H           6.7229196    -2.1110528    -1.1797723
C           4.2051333    -0.9833337    -2.0715750
C           4.5505198    -1.8980729    -3.2325927
H           5.0836287    -2.7977005    -2.9072291
H           5.1822487    -1.3874348    -3.9688659
H           3.6139153    -2.1849383    -3.7114178
C           5.3131546     1.2113002     1.7502319
H           5.8388114     1.5616586     2.6277157
C           4.0160135     1.4575594     1.3840022
H           3.2180204     2.0197300     1.8443596
N           3.8428743     0.7944590     0.1831022
H           3.0147342     0.6555761    -0.3843104
O           3.0442172    -0.6138107    -1.8854418
19
060_C6H9N3O_16-0-2-7 (0,) energy =    -473.5494996
C           4.9686670     0.2045621    -0.0664872
N           5.9293240     0.5736404     0.7580336
N           5.1679654    -0.6222831    -1.1911901
C           6.5427260    -1.0847004    -1.4244599
H           7.1611660    -0.6769429    -0.6268929
H           6.9168641    -0.7268535    -2.3886125
H           6.5960522    -2.1772373    -1.4002839
C           4.1253870    -0.9791499    -2.0210689
C           4.4684971    -1.8714841    -3.1997709
H           4.8842221    -2.8319581    -2.8749903
H           5.2033332    -1.4034536    -3.8642740
H           3.5467504    -2.0499838    -3.7540205
C           5.2995574     1.3617676     1.6990629
H           5.8559585     1.8077035     2.5118093
C           3.9589564     1.4603967     1.4336322
H           3.1504861     1.9812725     1.9233135
N           3.7568777     0.7108419     0.2895688
H           2.9151027     0.5145403    -0.2401425
O           2.9663111    -0.6032915    -1.8320303
19
060_C6H9N3O_16-0-2-7 (15,) energy =    -473.5489036
C           5.0172195     0.1737886    -0.0877718
N           5.9941046     0.6714128     0.6444202
N           5.2123698    -0.7273635    -1.1542032
C           6.5989983    -1.1469990    -1.3965921
H           7.1696602    -0.9322643    -0.4950240
H           7.0455641    -0.5941716    -2.2308308
H           6.6375165    -2.2172831    -1.6099990
C           4.1885236    -1.0370999    -2.0273423
C           4.5420596    -1.9116908    -3.2165229
H           4.8447444    -2.9158391    -2.8971606
H           5.3614489    -1.4928669    -3.8102877
H           3.6496508    -1.9941283    -3.8375127
C           5.3599730     1.4485944     1.5922760
H           5.9270450     1.9887725     2.3377148
C           4.0005840     1.4078589     1.4258380
H           3.1831037     1.8810840     1.9479053
N           3.7893233     0.5692654     0.3469576
H           2.9397077     0.3321012    -0.1520428
O           3.0311506    -0.6513544    -1.8523435
19
060_C6H9N3O_16-0-2-7 (30,) energy =    -473.5471074
C           5.0024167     0.1568732    -0.0928187
N           5.9858426     0.7631065     0.5403290
N           5.1935102    -0.8048895    -1.1057464
C           6.5846776    -1.2179953    -1.3296927
H           7.1122494    -1.1475601    -0.3800061
H           7.0927714    -0.5665524    -2.0502805
H           6.6120450    -2.2482257    -1.6875145
C           4.1942821    -1.0494569    -2.0324430
C           4.5599270    -1.8956873    -3.2383138
H           4.8341835    -2.9151639    -2.9431442
H           5.4018124    -1.4747944    -3.7984268
H           3.6817247    -1.9408110    -3.8829974
C           5.3613548     1.5294715     1.5043090
H           5.9350751     2.1482451     2.1803746
C           4.0018520     1.3683575     1.4497178
H           3.1890197     1.8025676     2.0115415
N           3.7816987     0.4561003     0.4338727
H           2.9182163     0.1857060    -0.0210228
O           3.0453877    -0.6369520    -1.8757177
19
060_C6H9N3O_16-0-2-7 (45,) energy =    -473.5441082
C           4.9610889     0.1675475    -0.1222499
N           5.9342312     0.8877986     0.3935093
N           5.1525029    -0.8444354    -1.0863043
C           6.5459493    -1.2664992    -1.2776001
H           7.0328859    -1.2803649    -0.3032837
H           7.1009488    -0.5761401    -1.9232065
H           6.5699536    -2.2689167    -1.7069608
C           4.1844917    -1.0305456    -2.0645607
C           4.5671541    -1.8599711    -3.2766669
H           4.8006333    -2.8933869    -2.9950112
H           5.4405913    -1.4520421    -3.7966253
H           3.7115642    -1.8647437    -3.9526085
C           5.3297553     1.6382358     1.3829873
H           5.8998889     2.3391546     1.9769549
C           3.9926645     1.3500809     1.4634923
H           3.1963940     1.7365652     2.0812125
N           3.7716892     0.3661177     0.5170674
H           2.8921030     0.0449824     0.1333237
O           3.0468427    -0.5864743    -1.9310272
19
060_C6H9N3O_16-0-2-7 (60,) energy =    -473.5402346
C           4.8946502     0.1601618    -0.1263877
N           5.8307424     0.9927412     0.2726874
N           5.0945609    -0.8733978    -1.0674110
C           6.4837312    -1.3308425    -1.2020759
H           6.9190954    -1.3995555    -0.2050409
H           7.0938061    -0.6365992    -1.7911228
H           6.5021971    -2.3186415    -1.6650922
C           4.1779632    -0.9846845    -2.1107321
C           4.5887331    -1.8092943    -3.3170151
H           4.7746934    -2.8540549    -3.0422023
H           5.4996776    -1.4226204    -3.7867845
H           3.7678878    -1.7735055    -4.0339185
C           5.2516321     1.7125044     1.2991865
H           5.8011740     2.4875911     1.8153503
C           3.9670377     1.2915110     1.5235771
H           3.1977267     1.6182432     2.2066207
N           3.7624030     0.2539797     0.6329602
H           2.8775629    -0.1485311     0.3553908
O           3.0637785    -0.4812762    -2.0263076
19
060_C6H9N3O_16-0-2-7 (75,) energy =    -473.5366579
C           4.8872054     0.1752176    -0.1544501
N           5.7460243     1.1410189     0.0850241
N           5.0777863    -0.8683321    -1.0879197
C           6.4448451    -1.4019537    -1.1525190
H           6.8195722    -1.5120586    -0.1337162
H           7.1240150    -0.7352417    -1.6962474
H           6.4388243    -2.3847162    -1.6274531
C           4.2122375    -0.9054610    -2.1824862
C           4.6213815    -1.7726050    -3.3602825
H           4.7223420    -2.8244165    -3.0684589
H           5.5783304    -1.4536389    -3.7878615
H           3.8415677    -1.6878426    -4.1177476
C           5.2175699     1.8335823     1.1544160
H           5.7214153     2.6978627     1.5649132
C           4.0374357     1.2680985     1.5648391
H           3.3291085     1.5289041     2.3365090
N           3.8571295     0.1731239     0.7435672
H           3.0204105    -0.3850636     0.6517645
O           3.1485726    -0.3035251    -2.1617792
19
060_C6H9N3O_16-0-2-7 (90,) energy =    -473.5342919
C           4.8508428     0.1959773    -0.1766943
N           5.5871364     1.2808787    -0.0863674
N           5.0347260    -0.8542923    -1.1051634
C           6.3677195    -1.4705977    -1.0889620
H           6.6490341    -1.6613433    -0.0508063
H           7.1265290    -0.8186992    -1.5380151
H           6.3481092    -2.4254194    -1.6172412
C           4.2310410    -0.8265415    -2.2481238
C           4.6351659    -1.7336370    -3.3984076
H           4.6543834    -2.7868404    -3.0951161
H           5.6289762    -1.4803832    -3.7841770
H           3.8987364    -1.6055729    -4.1923463
C           5.1126976     1.9463157     1.0228637
H           5.5379809     2.8905807     1.3343511
C           4.0892074     1.2458804     1.6111050
H           3.4643877     1.4432506     2.4690004
N           3.9517296     0.1049092     0.8488065
H           3.2283928    -0.5953364     0.9268152
O           3.2264640    -0.1354737    -2.2917001
19
060_C6H9N3O_16-0-2-7 (105,) energy =    -473.5325530
C           4.8104699     0.2042885    -0.1956977
N           5.4207294     1.3679464    -0.2214782
N           4.9877953    -0.8551801    -1.1152854
C           6.2850376    -1.5392602    -1.0293758
H           6.5043086    -1.7374109     0.0226450
H           7.0987395    -0.9306675    -1.4434640
H           6.2452627    -2.4964595    -1.5525363
C           4.2571123    -0.7759486    -2.3057587
C           4.6900849    -1.6898093    -3.4405923
H           4.6496830    -2.7458396    -3.1496437
H           5.7140106    -1.4729872    -3.7653805
H           4.0070617    -1.5243089    -4.2743355
C           5.0197713     2.0108985     0.9280447
H           5.3661350     3.0082702     1.1624371
C           4.1745451     1.2166049     1.6630620
H           3.6564247     1.3664745     2.5982045
N           4.0670905     0.0464287     0.9419044
H           3.4588766    -0.7356848     1.1370704
O           3.2929452    -0.0370433    -2.4029483
19
060_C6H9N3O_16-0-2-7 (120,) energy =    -473.5307330
C           4.7555662     0.2154762    -0.2173482
N           5.2200026     1.4378198    -0.3474959
N           4.9364755    -0.8585542    -1.1185012
C           6.1989790    -1.5945423    -0.9606655
H           6.3740082    -1.7602629     0.1050573
H           7.0547104    -1.0402220    -1.3680250
H           6.1354182    -2.5697264    -1.4473363
C           4.2860597    -0.7572301    -2.3558736
C           4.7804706    -1.6716879    -3.4652930
H           4.6790684    -2.7290712    -3.1943144
H           5.8343759    -1.4887141    -3.7031930
H           4.1729488    -1.4727189    -4.3486168
C           4.8999913     2.0733002     0.8310196
H           5.1556690     3.1113536     0.9945936
C           4.2608752     1.2161138     1.6923257
H           3.8637353     1.3383277     2.6887136
N           4.1924240     0.0162777     1.0152132
H           3.7032273    -0.8180048     1.3058399
O           3.3426052    -0.0042384    -2.5125780
19
060_C6H9N3O_16-0-2-7 (135,) energy =    -473.5284191
C           4.7027339     0.2222682    -0.2258969
N           5.0145224     1.4832153    -0.4218911
N           4.8711806    -0.8500035    -1.1311392
C           6.0854789    -1.6546649    -0.9247273
H           6.2257516    -1.8089923     0.1472642
H           6.9832215    -1.1599213    -1.3192298
H           5.9782744    -2.6339916    -1.3947533
C           4.2987483    -0.7087735    -2.4054787
C           4.8373530    -1.6203702    -3.4976831
H           4.6705331    -2.6777515    -3.2607689
H           5.9125334    -1.4803333    -3.6558238
H           4.3038853    -1.3767074    -4.4168615
C           4.7969770     2.1027994     0.7882406
H           4.9619430     3.1647962     0.9091743
C           4.3852955     1.1996974     1.7355818
H           4.1280132     1.2954489     2.7795966
N           4.3465841    -0.0139791     1.0774822
H           3.9716831    -0.8808860     1.4350885
O           3.3856506     0.0678662    -2.6095518
19
060_C6H9N3O_16-0-2-7 (150,) energy =    -473.5254681
C           4.6569195     0.2301932    -0.2289690
N           4.7825662     1.5145106    -0.4717943
N           4.8163340    -0.8380339    -1.1408100
C           5.9657580    -1.7204402    -0.8854001
H           6.0546720    -1.8941778     0.1882940
H           6.9111495    -1.2842149    -1.2362090
H           5.8164554    -2.6873058    -1.3680832
C           4.3238021    -0.6672326    -2.4480546
C           4.9081365    -1.5786815    -3.5182555
H           4.6932533    -2.6345718    -3.3165073
H           5.9952319    -1.4704539    -3.6038996
H           4.4436286    -1.3009757    -4.4647502
C           4.6644076     2.1310811     0.7547919
H           4.7164692     3.2075919     0.8442806
C           4.5038774     1.2085509     1.7550089
H           4.3923694     1.2945602     2.8252272
N           4.5231336    -0.0184648     1.1156361
H           4.2866772    -0.9077233     1.5315947
O           3.4436793     0.1303754    -2.7024796
19
060_C6H9N3O_16-0-2-7 (165,) energy =    -473.5234878
C           4.7144798     0.4646451    -0.1518087
N           4.3810227     1.7217405    -0.3342291
N           4.9353521    -0.5288567    -1.1251288
C           5.7341468    -1.6754470    -0.6998006
H           5.1665323    -2.3427976    -0.0343147
H           6.6345435    -1.3367565    -0.1753020
H           6.0479390    -2.2607531    -1.5596105
C           4.4285232    -0.3950598    -2.4304705
C           4.8633064    -1.4475407    -3.4478329
H           4.5271266    -2.4553392    -3.1785633
H           5.9509565    -1.4753050    -3.5810910
H           4.4012455    -1.1681685    -4.3950270
C           4.3572075     2.2783777     0.9267788
H           4.1038865     3.3207199     1.0647708
C           4.6945288     1.3593379     1.8815117
H           4.7979522     1.4103464     2.9546280
N           4.9409390     0.1888100     1.1789832
H           5.1261256    -0.7122072     1.5919388
O           3.6764003     0.5021944    -2.7489806
19
060_C6H9N3O_16-0-2-7 (180,) energy =    -473.5227236
C           4.7352224     0.4340678    -0.1971174
N           4.1573209     1.6059194    -0.3358407
N           4.9771623    -0.5488747    -1.1771317
C           5.6478309    -1.7578508    -0.7089030
H           5.0494588    -2.2680712     0.0579168
H           6.6357863    -1.5224444    -0.2907899
H           5.7946292    -2.4533499    -1.5289859
C           4.5958216    -0.3657061    -2.5196515
C           4.9089539    -1.5071239    -3.4865533
H           4.4102630    -2.4429528    -3.2094725
H           5.9840077    -1.7042135    -3.5695421
H           4.5374628    -1.1898184    -4.4612297
C           4.1704521     2.1705421     0.9217734
H           3.7489790     3.1524644     1.0887032
C           4.7590907     1.3394680     1.8332817
H           4.9551392     1.4196583     2.8916117
N           5.1248481     0.2152852     1.1077133
H           5.5860311    -0.5963094     1.4864592
O           4.0441987     0.6404793    -2.9126574
