19
060_C6H9N3O_0-2-7-8 (-165,) energy =    -473.5484838
C           5.0538602     0.1879184    -0.0868215
N           5.9852048     0.4224693     0.8164800
N           5.2795788    -0.5264313    -1.2805566
C           6.6405256    -1.0472175    -1.4615258
H           7.3166665    -0.4114391    -0.8925950
H           6.9127353    -1.0202353    -2.5176729
H           6.7333966    -2.0731844    -1.0861558
C           4.2327325    -0.9095076    -2.0964672
C           4.5312173    -1.9573048    -3.1540201
H           4.9939127    -2.8498064    -2.7194147
H           5.2072108    -1.5785963    -3.9294661
H           3.5829551    -2.2278849    -3.6192096
C           5.3421363     1.1449702     1.8009059
H           5.8732621     1.4786921     2.6815909
C           4.0245667     1.3412977     1.4801602
H           3.2140986     1.8452642     1.9840245
N           3.8500705     0.7219529     0.2562425
H           3.0284824     0.6218603    -0.3285836
O           3.0921170    -0.4639366    -1.9580340
19
060_C6H9N3O_0-2-7-8 (-150,) energy =    -473.5454072
C           5.0606377     0.1955257    -0.1686578
N           5.9659835     0.3133378     0.7813936
N           5.3011238    -0.4237674    -1.4115352
C           6.6534758    -0.9722311    -1.5726236
H           7.3521014    -0.2883948    -1.0928751
H           6.8916204    -1.0520759    -2.6337316
H           6.7578928    -1.9540830    -1.0954003
C           4.2445060    -0.8454743    -2.2040506
C           4.4836901    -2.0466781    -3.1017688
H           4.8670359    -2.8943364    -2.5232204
H           5.2030171    -1.8419689    -3.9027619
H           3.5267165    -2.3121143    -3.5518576
C           5.3135448     0.9759697     1.8025892
H           5.8223002     1.2080469     2.7280207
C           4.0182984     1.2550869     1.4546912
H           3.2099209     1.7484053     1.9722518
N           3.8669922     0.7522084     0.1747422
H           3.0629515     0.7398916    -0.4410527
O           3.1265591    -0.3388525    -2.1170268
19
060_C6H9N3O_0-2-7-8 (-135,) energy =    -473.5404091
C           5.0771079     0.2302272    -0.1988886
N           5.9456137     0.2398309     0.7905996
N           5.3423265    -0.2963958    -1.4793400
C           6.6900870    -0.8582084    -1.6350333
H           7.3962260    -0.1720044    -1.1690459
H           6.9218930    -0.9499847    -2.6969384
H           6.7953960    -1.8338352    -1.1449962
C           4.2816123    -0.7659141    -2.2538126
C           4.4629740    -2.0973820    -2.9604631
H           4.7213886    -2.8696790    -2.2267673
H           5.2541300    -2.0873860    -3.7176688
H           3.5173209    -2.3485478    -3.4416664
C           5.2736313     0.8470731     1.8349770
H           5.7522928     0.9894667     2.7940085
C           4.0044440     1.2004047     1.4611391
H           3.1913205     1.6788809     1.9851479
N           3.8910371     0.8071703     0.1385076
H           3.1081884     0.8686636    -0.5003800
O           3.1884479    -0.2068921    -2.2356280
19
060_C6H9N3O_0-2-7-8 (-120,) energy =    -473.5340739
C           5.1028058     0.2424394    -0.2597858
N           5.9369489     0.1522359     0.7535022
N           5.3858320    -0.1886847    -1.5721737
C           6.7338120    -0.7530793    -1.7276529
H           7.4423895    -0.0608009    -1.2735463
H           6.9585108    -0.8497460    -2.7913645
H           6.8478185    -1.7238573    -1.2298550
C           4.3208840    -0.7090309    -2.3276961
C           4.4370927    -2.1384863    -2.8237115
H           4.5015614    -2.7951999    -1.9471776
H           5.3207595    -2.3297569    -3.4395904
H           3.5394994    -2.3789173    -3.3944915
C           5.2474719     0.7033739     1.8193645
H           5.6974039     0.7592751     2.8009819
C           4.0021111     1.1211228     1.4343105
H           3.1866368     1.5859097     1.9668769
N           3.9218930     0.8289703     0.0821297
H           3.1632495     0.9763922    -0.5707198
O           3.2582828    -0.1048971    -2.3960634
19
060_C6H9N3O_0-2-7-8 (-105,) energy =    -473.5270814
C           5.1061680     0.2243431    -0.3496240
N           5.8840195     0.0307851     0.6925593
N           5.4243649    -0.1194114    -1.6797021
C           6.7697718    -0.6953086    -1.8206340
H           7.4839810     0.0088859    -1.3925824
H           6.9884095    -0.8213193    -2.8833501
H           6.8874829    -1.6510618    -1.2951892
C           4.3614339    -0.7017598    -2.4229745
C           4.4100456    -2.1960519    -2.6770025
H           4.3664923    -2.6931861    -1.6994185
H           5.3239116    -2.5353576    -3.1728997
H           3.5423966    -2.4832353    -3.2722289
C           5.1692460     0.5476948     1.7603225
H           5.5738540     0.5221675     2.7627461
C           3.9627840     1.0448806     1.3483593
H           3.1414380     1.5070967     1.8740871
N           3.9342105     0.8398461    -0.0228056
H           3.2159000     1.0812419    -0.6921064
O           3.3487572    -0.0559183    -2.6328237
19
060_C6H9N3O_0-2-7-8 (-90,) energy =    -473.5205713
C           5.1324443     0.2336551    -0.3753470
N           5.8558264    -0.0792609     0.6772291
N           5.4739930    -0.0033420    -1.7215437
C           6.8170008    -0.5826622    -1.8783687
H           7.5399799     0.1239053    -1.4672114
H           7.0180070    -0.7117250    -2.9449867
H           6.9459526    -1.5366368    -1.3519782
C           4.4098456    -0.6513522    -2.4513148
C           4.3931626    -2.1670300    -2.4671161
H           4.3583397    -2.5140015    -1.4267994
H           5.2885561    -2.6026133    -2.9215008
H           3.5082228    -2.5109372    -3.0040695
C           5.1262862     0.3909948     1.7567084
H           5.4910128     0.2710947     2.7675898
C           3.9591740     0.9738398     1.3440853
H           3.1395800     1.4324031     1.8758005
N           3.9742993     0.8753875    -0.0392176
H           3.2957757     1.2228359    -0.7026012
O           3.4738653     0.0093209    -2.8499455
19
060_C6H9N3O_0-2-7-8 (-75,) energy =    -473.5267886
C           4.8056696     0.4974720    -0.5150666
N           5.4108895     1.5816416    -0.9524119
N           4.7666544    -0.7569869    -1.1556051
C           5.5738609    -1.7875525    -0.4610722
H           5.2337197    -1.8572348     0.5752491
H           6.6437229    -1.5536951    -0.4796959
H           5.4160584    -2.7485748    -0.9533357
C           5.0449555    -0.6912769    -2.5615915
C           3.9110625    -0.1418329    -3.4005481
H           4.2934043     0.2022521    -4.3635707
H           3.3680778     0.6658829    -2.9044466
H           3.2126249    -0.9689827    -3.5765231
C           5.1356613     2.5559667    -0.0141299
H           5.5201691     3.5606689    -0.1229099
C           4.3706793     2.0504341     1.0039265
H           3.9837118     2.4820018     1.9145711
N           4.1551965     0.7251405     0.6692025
H           3.5710720     0.0647045     1.1605733
O           5.9934572    -1.2762142    -3.0403171
19
060_C6H9N3O_0-2-7-8 (-60,) energy =    -473.5319843
C           4.8261656     0.5013476    -0.5333159
N           5.5058359     1.5677483    -0.8993498
N           4.8411055    -0.7658949    -1.1495327
C           5.6965109    -1.7551070    -0.4587986
H           5.4290773    -1.7658865     0.6006238
H           6.7602132    -1.5149829    -0.5642672
H           5.5162961    -2.7405998    -0.8903002
C           4.9806772    -0.7743509    -2.5613049
C           3.8912240    -0.0515039    -3.3291177
H           4.2704226     0.2358496    -4.3117370
H           3.5051368     0.8285362    -2.8110738
H           3.0674803    -0.7613422    -3.4717654
C           5.1557207     2.5497673     0.0031359
H           5.5746658     3.5444698    -0.0625301
C           4.2674494     2.0672322     0.9302575
H           3.7886182     2.5141149     1.7883732
N           4.0563347     0.7497189     0.5730266
H           3.4099695     0.1007115     0.9977833
O           5.7856730    -1.5051000    -3.1053209
19
060_C6H9N3O_0-2-7-8 (-45,) energy =    -473.5357414
C           5.0874090    -0.1173172    -0.4545333
N           5.6891680     1.0089417    -0.7759043
N           5.2366432    -1.3706408    -1.0778774
C           6.1234410    -2.3199143    -0.3773014
H           5.8517534    -2.3364639     0.6809242
H           7.1775595    -2.0371695    -0.4771744
H           5.9867285    -3.3123615    -0.8076351
C           5.3357243    -1.3988878    -2.4839759
C           4.3456080    -0.5340397    -3.2427589
H           4.2374949    -0.9514978    -4.2452720
H           4.7144804     0.4932224    -3.3225995
H           3.3742428    -0.5036876    -2.7400930
C           5.2204703     1.9426802     0.1227271
H           5.5551785     2.9703033     0.0874626
C           4.3386999     1.3717856     1.0053545
H           3.7861729     1.7635382     1.8459307
N           4.2539321     0.0485949     0.6214931
H           3.6549991    -0.6617858     1.0167974
O           6.0817964    -2.1874224    -3.0361079
19
060_C6H9N3O_0-2-7-8 (-30,) energy =    -473.5381651
C           5.1075820    -0.1280625    -0.4585742
N           5.7155248     1.0069501    -0.7350894
N           5.3054741    -1.3745398    -1.0779785
C           6.1983464    -2.3203087    -0.3877622
H           5.9629332    -2.3132167     0.6792178
H           7.2518557    -2.0505752    -0.5263144
H           6.0369657    -3.3175715    -0.7972363
C           5.2619272    -1.4767651    -2.4749431
C           4.3620202    -0.4940431    -3.2013815
H           4.1482376    -0.9053854    -4.1891961
H           4.8667491     0.4704248    -3.3139931
H           3.4282757    -0.3173008    -2.6584800
C           5.1931004     1.9258340     0.1478679
H           5.5185442     2.9570438     0.1404585
C           4.2711836     1.3376036     0.9774928
H           3.6697192     1.7166285     1.7898835
N           4.2196508     0.0188009     0.5768352
H           3.6132602    -0.7037002     0.9376367
O           5.8614019    -2.3700130    -3.0495090
19
060_C6H9N3O_0-2-7-8 (-15,) energy =    -473.5389681
C           5.1554805    -0.1422666    -0.4663492
N           5.7818311     0.9938209    -0.6927732
N           5.3941178    -1.3825608    -1.0807087
C           6.2797055    -2.3205489    -0.3787360
H           5.9195187    -2.4758765     0.6426194
H           7.3060939    -1.9369788    -0.3394497
H           6.2697129    -3.2630988    -0.9249469
C           5.1842721    -1.5725955    -2.4490255
C           4.3678421    -0.5101543    -3.1625168
H           4.0943414    -0.9022343    -4.1430009
H           4.9596901     0.4022963    -3.2846761
H           3.4649099    -0.2414649    -2.6045409
C           5.2119613     1.9039722     0.1686613
H           5.5394858     2.9343209     0.1919673
C           4.2397090     1.3099797     0.9350866
H           3.5904565     1.6831068     1.7127470
N           4.2084394    -0.0033372     0.5176185
H           3.5866321    -0.7302472     0.8416880
O           5.6170083    -2.5600096    -3.0212849
19
060_C6H9N3O_0-2-7-8 (0,) energy =    -473.5387281
C           5.2020620    -0.1114501    -0.4841719
N           5.8625813     1.0192057    -0.6233452
N           5.4763609    -1.3360474    -1.1132350
C           6.3417391    -2.2869546    -0.4088544
H           5.8938967    -2.5887551     0.5448344
H           7.3205223    -1.8357931    -0.2137079
H           6.4569919    -3.1606582    -1.0499333
C           5.0794057    -1.6088018    -2.4217662
C           4.3271749    -0.5007363    -3.1382836
H           4.0346446    -0.8756445    -4.1196489
H           4.9642266     0.3819721    -3.2506391
H           3.4340850    -0.1888636    -2.5856407
C           5.2389276     1.9140225     0.2157748
H           5.5790559     2.9373785     0.2965825
C           4.1942984     1.3172532     0.8784832
H           3.4858753     1.6816441     1.6071686
N           4.1784624     0.0170385     0.4230773
H           3.5306550    -0.7117903     0.6866181
O           5.3434512    -2.6737800    -2.9573923
19
060_C6H9N3O_0-2-7-8 (15,) energy =    -473.5376979
C           5.2668696    -0.0944105    -0.4865413
N           5.9818863     1.0108686    -0.4989583
N           5.5694870    -1.2996400    -1.1403344
C           6.4059929    -2.2737799    -0.4331103
H           5.8670970    -2.7454524     0.3988251
H           7.2927563    -1.7672261    -0.0430214
H           6.6943706    -3.0461843    -1.1457898
C           4.9812231    -1.6562444    -2.3511853
C           4.2737828    -0.5396842    -3.1026739
H           3.9666174    -0.9326718    -4.0724818
H           4.9402699     0.3177379    -3.2376887
H           3.3879224    -0.1824905    -2.5655763
C           5.3066052     1.8941107     0.3116975
H           5.6757504     2.8968529     0.4782040
C           4.1699500     1.3179208     0.8243084
H           3.3955919     1.6845261     1.4813558
N           4.1536980     0.0403642     0.3091068
H           3.4641668    -0.6764880     0.4857295
O           5.0888719    -2.7862700    -2.8017607
19
060_C6H9N3O_0-2-7-8 (30,) energy =    -473.5361876
C           5.3820961     0.0061001    -0.4714531
N           6.2486506     0.9367196    -0.1319406
N           5.6843193    -1.1861984    -1.1458866
C           6.6227876    -2.1064191    -0.4891172
H           6.1267790    -2.7080533     0.2825208
H           7.4177148    -1.5115418    -0.0377480
H           7.0327268    -2.7792627    -1.2422345
C           4.8906301    -1.6898327    -2.1711674
C           4.1290505    -0.6795032    -3.0202136
H           4.2780305    -0.9707802    -4.0631262
H           4.4585417     0.3513680    -2.8763333
H           3.0521091    -0.7400588    -2.8238399
C           5.5202993     1.8807252     0.5564576
H           5.9910783     2.7697334     0.9532322
C           4.1976180     1.5237980     0.6278814
H           3.3295906     2.0030631     1.0545471
N           4.1194030     0.3091660    -0.0253828
H           3.2989902    -0.2717384    -0.1205794
O           4.8912649    -2.8814107    -2.4424796
19
060_C6H9N3O_0-2-7-8 (45,) energy =    -473.5337254
C           5.3568610     0.0692651    -0.5723357
N           6.2456665     0.9630342    -0.1952768
N           5.6268361    -1.0801056    -1.3335654
C           6.5502012    -2.0502597    -0.7237169
H           6.0582588    -2.6496543     0.0520696
H           7.3798301    -1.4918798    -0.2888320
H           6.9139948    -2.7223063    -1.5014071
C           4.7001135    -1.5780950    -2.2520630
C           4.0308143    -0.5596851    -3.1645121
H           4.4750981    -0.6936115    -4.1568498
H           4.1711404     0.4785612    -2.8591115
H           2.9634655    -0.7815588    -3.2572190
C           5.5487876     1.8700281     0.5717478
H           6.0430925     2.7240806     1.0141072
C           4.2226785     1.5295225     0.6514699
H           3.3728918     1.9908608     1.1312229
N           4.1090954     0.3614079    -0.0789357
H           3.2787608    -0.2038342    -0.1843828
O           4.5704570    -2.7785286    -2.4339299
19
060_C6H9N3O_0-2-7-8 (60,) energy =    -473.5299283
C           5.3557076     0.0980716    -0.5678307
N           6.2255788     1.0056469    -0.1810332
N           5.6427587    -1.0195561    -1.3742990
C           6.5470157    -2.0044182    -0.7504905
H           6.0502470    -2.5754201     0.0431108
H           7.3950250    -1.4567116    -0.3380661
H           6.8885420    -2.7008758    -1.5175209
C           4.6287039    -1.5477289    -2.1923044
C           4.0591764    -0.5894937    -3.2261976
H           4.6446637    -0.7365190    -4.1412214
H           4.1365873     0.4623784    -2.9422730
H           3.0206961    -0.8469685    -3.4492346
C           5.5175627     1.8689966     0.6255460
H           5.9959699     2.7229250     1.0853502
C           4.2027417     1.4901172     0.7162502
H           3.3491664     1.9138993     1.2231380
N           4.1076615     0.3421140    -0.0486568
H           3.2950173    -0.2502254    -0.1451283
O           4.3913040    -2.7437218    -2.2217384
19
060_C6H9N3O_0-2-7-8 (75,) energy =    -473.5247195
C           5.3609349     0.1513847    -0.6103140
N           6.1646837     1.1512130    -0.3204758
N           5.6622160    -0.9410636    -1.4529916
C           6.4908443    -1.9717596    -0.7918405
H           5.9557458    -2.4899664     0.0131738
H           7.3728935    -1.4724791    -0.3874259
H           6.7966513    -2.7089550    -1.5370043
C           4.5605332    -1.4550434    -2.1903397
C           4.1379379    -0.5903358    -3.3612473
H           4.8037963    -0.8437596    -4.1948820
H           4.2520248     0.4787944    -3.1630322
H           3.1113364    -0.8187747    -3.6562653
C           5.4659800     1.9336740     0.5712531
H           5.8973803     2.8380270     0.9783179
C           4.2204042     1.4109930     0.8144691
H           3.3929924     1.7394856     1.4251318
N           4.1619434     0.2598791     0.0548659
H           3.4134534    -0.4192306     0.0419531
O           4.1516422    -2.5907009    -2.0289690
19
060_C6H9N3O_0-2-7-8 (90,) energy =    -473.5205713
C           5.0530164    -0.1189309    -0.1281601
N           6.0312898     0.7232366     0.1225393
N           5.1717543    -1.3660234    -0.7729313
C           6.5649989    -1.7180213    -1.0873206
H           7.1203660    -1.7699963    -0.1493160
H           7.0663438    -0.9853615    -1.7320272
H           6.5769630    -2.7040434    -1.5588633
C           4.2162830    -1.5226381    -1.8441195
C           4.6348251    -1.0677177    -3.2281987
H           5.5079207    -1.6046472    -3.6120463
H           4.9105720    -0.0076161    -3.1648850
H           3.7979946    -1.1942572    -3.9162482
C           5.4285803     1.7687734     0.8024208
H           6.0070009     2.6173915     1.1408874
C           4.0850385     1.5523848     0.9445048
H           3.2917514     2.1305484     1.3930113
N           3.8507406     0.3233007     0.3462528
H           2.9824012    -0.1893182     0.2799147
O           3.0694984    -1.8168269    -1.5799392
19
060_C6H9N3O_0-2-7-8 (105,) energy =    -473.5270814
C           5.0362497    -0.0851563    -0.1323502
N           6.0290073     0.6953009     0.2336849
N           5.1671545    -1.2781834    -0.8726711
C           6.5648408    -1.6174998    -1.1775951
H           7.1160625    -1.6508955    -0.2372484
H           7.0559807    -0.8819063    -1.8265143
H           6.5932178    -2.6059990    -1.6413958
C           4.1911743    -1.4675254    -1.8890468
C           4.6169972    -1.2541043    -3.3288136
H           5.4713068    -1.8635143    -3.6369838
H           4.9153295    -0.2023783    -3.4266898
H           3.7683273    -1.4558879    -3.9835090
C           5.4243230     1.7116370     0.9545410
H           6.0111742     2.5121447     1.3834995
C           4.0687800     1.5334669     1.0112522
H           3.2715990     2.1055867     1.4605009
N           3.8267450     0.3606601     0.3120446
H           2.9505645    -0.1133481     0.1393338
O           3.0146436    -1.5638079    -1.5838169
19
060_C6H9N3O_0-2-7-8 (120,) energy =    -473.5340739
C           5.0458569    -0.0082339    -0.0833607
N           6.0557186     0.6981067     0.3770157
N           5.1725721    -1.1482971    -0.9034416
C           6.5664335    -1.5050896    -1.2027987
H           7.1210326    -1.5095873    -0.2647455
H           7.0529167    -0.7889057    -1.8763157
H           6.5918078    -2.5052281    -1.6391419
C           4.1743598    -1.3671602    -1.8685114
C           4.5963320    -1.4126196    -3.3254779
H           5.3556381    -2.1675246    -3.5498234
H           5.0216228    -0.4348117    -3.5838577
H           3.7110286    -1.5979163    -3.9347181
C           5.4644659     1.6949552     1.1332613
H           6.0660893     2.4385834     1.6374467
C           4.1008108     1.5767354     1.1201072
H           3.3097588     2.1525838     1.5753957
N           3.8393521     0.4627303     0.3385620
H           2.9558158     0.0440653     0.0786218
O           2.9914335    -1.3079008    -1.5587589
19
060_C6H9N3O_0-2-7-8 (135,) energy =    -473.5404091
C           5.0374977     0.0581554    -0.0770730
N           6.0459640     0.7024397     0.4719096
N           5.1814824    -1.0185379    -0.9755290
C           6.5743568    -1.3762212    -1.2726694
H           7.1307872    -1.3674620    -0.3362066
H           7.0525545    -0.6630207    -1.9551250
H           6.6053456    -2.3782295    -1.7025729
C           4.1687710    -1.2713950    -1.9006507
C           4.5813190    -1.5567502    -3.3336310
H           5.1675266    -2.4749365    -3.4462595
H           5.1930807    -0.7291018    -3.7108234
H           3.6720443    -1.6435128    -3.9291074
C           5.4506111     1.6575506     1.2746215
H           6.0496129     2.3459265     1.8546826
C           4.0854815     1.5760871     1.2023910
H           3.2909859     2.1393124     1.6674148
N           3.8280192     0.5294190     0.3334518
H           2.9494081     0.1567161    -0.0041073
O           2.9875685    -1.1109887    -1.6059054
19
060_C6H9N3O_0-2-7-8 (150,) energy =    -473.5454072
C           5.0381296     0.1009651    -0.1006429
N           6.0419895     0.6656467     0.5392925
N           5.1932392    -0.9061062    -1.0742188
C           6.5854745    -1.2741340    -1.3603265
H           7.1383114    -1.2499818    -0.4224262
H           7.0620741    -0.5704173    -2.0533729
H           6.6190975    -2.2809154    -1.7778171
C           4.1669686    -1.1911696    -1.9618333
C           4.5578110    -1.7064307    -3.3357876
H           5.0119268    -2.7032219    -3.3024048
H           5.2771249    -1.0323847    -3.8137473
H           3.6482759    -1.7574373    -3.9349359
C           5.4442888     1.5771513     1.3875336
H           6.0389654     2.1988436     2.0424932
C           4.0813557     1.5495192     1.2524160
H           3.2856805     2.1009384     1.7294342
N           3.8286172     0.5861082     0.2922075
H           2.9560849     0.2630973    -0.1080284
O           2.9914518    -0.9451449    -1.6941016
19
060_C6H9N3O_0-2-7-8 (165,) energy =    -473.5484837
C           5.0503699     0.1796184    -0.0787618
N           6.0355481     0.6587701     0.6548516
N           5.2288828    -0.7495881    -1.1232330
C           6.6171834    -1.1466498    -1.3898524
H           7.1806284    -1.0206801    -0.4669621
H           7.0754983    -0.5182861    -2.1626906
H           6.6527965    -2.1913847    -1.7021263
C           4.1959167    -1.0704362    -1.9825592
C           4.5660656    -1.7949438    -3.2645214
H           4.9338542    -2.8096014    -3.0723615
H           5.3443080    -1.2611252    -3.8203023
H           3.6633152    -1.8601467    -3.8724735
C           5.4219696     1.5156612     1.5458866
H           5.9992768     2.0594931     2.2807556
C           4.0674485     1.5443020     1.3413191
H           3.2639920     2.0804097     1.8227403
N           3.8377861     0.6740830     0.2915551
H           2.9802951     0.4109233    -0.1801357
O           3.0270960    -0.7524795    -1.7557505
19
060_C6H9N3O_0-2-7-8 (180,) energy =    -473.5494992
C           4.9812539     0.2061456    -0.0724836
N           5.9395593     0.5689583     0.7576320
N           5.1822936    -0.6185417    -1.1983799
C           6.5576674    -1.0785433    -1.4325020
H           7.1734930    -0.6811334    -0.6277363
H           6.9352695    -0.7095124    -2.3912279
H           6.6105640    -2.1712975    -1.4212426
C           4.1404335    -0.9754438    -2.0298536
C           4.4857690    -1.8671563    -3.2082385
H           4.8865007    -2.8332886    -2.8810330
H           5.2333921    -1.4067909    -3.8635722
H           3.5679197    -2.0339684    -3.7725023
C           5.3101224     1.3616121     1.6951781
H           5.8641631     1.8033667     2.5118106
C           3.9721970     1.4704653     1.4210601
H           3.1634242     1.9912498     1.9102710
N           3.7711756     0.7209329     0.2764035
H           2.9298344     0.5299766    -0.2556240
O           2.9815875    -0.5987153    -1.8429916
