18
307_C8H9F_3-0-4-13 (-165,) energy =    -410.1058196
C           1.4888382    -1.3591166    -0.0520740
H           1.1383533    -1.1177768     0.9588098
H           2.2546121    -2.1411691     0.0224520
F           0.4203825    -1.8735004    -0.7819133
C           2.0508614    -0.1272918    -0.7650973
H           2.1189416    -0.3827105    -1.8296221
H           1.3398132     0.7019433    -0.6782947
C           5.9496517     0.9434447     0.7795661
H           6.9285664     1.2073162     1.1706774
C           4.8021711     1.5543068     1.2873424
H           4.8838231     2.2969740     2.0767007
C           3.5464780     1.2169892     0.7794716
H           2.6555238     1.7003733     1.1749447
C           3.4152230     0.2673831    -0.2422351
C           4.5759237    -0.3381249    -0.7438555
H           4.4942457    -1.0726504    -1.5425277
C           5.8327879    -0.0043080    -0.2392072
H           6.7213999    -0.4806104    -0.6452376
18
307_C8H9F_3-0-4-13 (-150,) energy =    -410.1037003
C           1.4798165    -1.3595902    -0.0800572
H           0.9284966    -1.1622926     0.8470646
H           2.3036651    -2.0475939     0.1450217
F           0.6280715    -2.0038308    -0.9742225
C           2.0199241    -0.0692740    -0.7150717
H           2.0622367    -0.2608929    -1.7942853
H           1.3139116     0.7544168    -0.5635987
C           5.9680287     0.9422138     0.7471164
H           6.9593948     1.1915846     1.1157038
C           4.8436628     1.5875128     1.2626692
H           4.9547146     2.3429878     2.0361712
C           3.5719122     1.2673896     0.7833676
H           2.6998330     1.7783675     1.1859784
C           3.4006266     0.3015811    -0.2163940
C           4.5393597    -0.3384717    -0.7265271
H           4.4278642    -1.0864752    -1.5090030
C           5.8115924    -0.0225309    -0.2507467
H           6.6821649    -0.5257757    -0.6633151
18
307_C8H9F_3-0-4-13 (-135,) energy =    -410.1014334
C           1.4453787    -1.3777977    -0.1240979
H           0.6973815    -1.2137055     0.6604770
H           2.2638967    -1.9743510     0.2948410
F           0.8551567    -2.1324128    -1.1359789
C           1.9789732    -0.0479427    -0.6969199
H           1.9918552    -0.1761672    -1.7859117
H           1.2826813     0.7698601    -0.4821378
C           5.9601010     0.9059849     0.7147548
H           6.9595344     1.1401215     1.0713512
C           4.8531846     1.5748375     1.2374305
H           4.9856036     2.3335345     2.0044327
C           3.5705367     1.2733793     0.7745325
H           2.7124758     1.8023591     1.1839860
C           3.3711224     0.3026065    -0.2145087
C           4.4930325    -0.3606493    -0.7330972
H           4.3591237    -1.1129186    -1.5079010
C           5.7756539    -0.0634777    -0.2740917
H           6.6326315    -0.5851423    -0.6922804
18
307_C8H9F_3-0-4-13 (-120,) energy =    -410.1005656
C           1.7103831    -1.6836531    -0.1463741
H           0.6685787    -1.5491439     0.1677185
H           2.3158811    -1.9050589     0.7394132
F           1.7563883    -2.7986507    -0.9824892
C           2.2406829    -0.4379747    -0.8907173
H           2.4896234    -0.7726918    -1.9048974
H           1.4429480     0.3058321    -0.9949064
C           5.7020224     1.3588450     0.9908177
H           6.5720900     1.8052496     1.4647248
C           4.4912914     2.0499197     0.9508299
H           4.4127015     3.0388988     1.3948998
C           3.3752019     1.4735811     0.3394367
H           2.4346039     2.0196490     0.3110396
C           3.4494412     0.2024812    -0.2408028
C           4.6737349    -0.4815952    -0.1953580
H           4.7494725    -1.4689276    -0.6466316
C           5.7898231     0.0888983     0.4145021
H           6.7303453    -0.4555340     0.4364693
18
307_C8H9F_3-0-4-13 (-105,) energy =    -410.1020377
C           1.7611930    -1.7146208    -0.1781120
H           0.6734903    -1.7493296    -0.0424246
H           2.2423581    -1.8674707     0.7937358
F           2.1024934    -2.7842538    -1.0083875
C           2.1937301    -0.3873827    -0.8271480
H           2.3541807    -0.5975643    -1.8917954
H           1.3651504     0.3289460    -0.7756357
C           5.7294211     1.3551544     0.9600974
H           6.6194867     1.7878689     1.4089650
C           4.5440031     2.0879716     0.9046319
H           4.5055279     3.0950289     1.3119055
C           3.4006930     1.5297275     0.3273927
H           2.4796329     2.1075964     0.2886506
C           3.4247444     0.2357696    -0.2029290
C           4.6233062    -0.4918128    -0.1423720
H           4.6523193    -1.4989563    -0.5529643
C           5.7655190     0.0608070     0.4343602
H           6.6854471    -0.5170005     0.4715338
18
307_C8H9F_3-0-4-13 (-90,) energy =    -410.1049482
C           1.7810567    -1.7016705    -0.1926312
H           0.6987159    -1.8627730    -0.2689907
H           2.0817623    -1.7913445     0.8567262
F           2.3952029    -2.7275528    -0.9175347
C           2.1694378    -0.3437491    -0.7836960
H           2.2764895    -0.4850801    -1.8669670
H           1.3307713     0.3500859    -0.6443368
C           5.7501761     1.3667205     0.9450445
H           6.6508043     1.7930614     1.3787923
C           4.5739767     2.1149173     0.8929860
H           4.5534009     3.1272722     1.2882991
C           3.4173127     1.5648125     0.3356695
H           2.5032696     2.1540466     0.3000171
C           3.4182717     0.2636314    -0.1784359
C           4.6072374    -0.4800322    -0.1214005
H           4.6150907    -1.4932842    -0.5144788
C           5.7625712     0.0654173     0.4365932
H           6.6744585    -0.5251309     0.4730693
18
307_C8H9F_3-0-4-13 (-75,) energy =    -410.1068150
C           1.7197043    -1.7182434    -0.1821942
H           0.6955694    -1.9664192    -0.4872155
H           1.7703686    -1.6902803     0.9123303
F           2.5473842    -2.7511656    -0.6300758
C           2.1537475    -0.3909334    -0.7974617
H           2.2723636    -0.5553666    -1.8769920
H           1.3251937     0.3195992    -0.6812433
C           5.7500666     1.3160823     0.9096633
H           6.6526717     1.7455487     1.3362378
C           4.5605155     2.0444837     0.9040787
H           4.5298761     3.0450457     1.3278043
C           3.4033753     1.4891472     0.3540994
H           2.4798294     2.0645334     0.3532502
C           3.4134774     0.2031253    -0.1998120
C           4.6161419    -0.5206278    -0.1879962
H           4.6361951    -1.5232974    -0.6026795
C           5.7724262     0.0309504     0.3628748
H           6.6945185    -0.5447476     0.3638898
18
307_C8H9F_3-0-4-13 (-60,) energy =    -410.1067317
C           1.6602395    -1.6526501    -0.1030366
H           0.7598860    -2.0437188    -0.5930992
H           1.4213198    -1.4103270     0.9397678
F           2.6198930    -2.6630388    -0.0942910
C           2.1845876    -0.4235817    -0.8421111
H           2.3724826    -0.7127897    -1.8846577
H           1.3779216     0.3203863    -0.8624198
C           5.7548852     1.2924948     0.9063514
H           6.6514641     1.7231689     1.3442977
C           4.5381566     1.9697230     0.9876761
H           4.4805834     2.9321791     1.4895937
C           3.3900842     1.4134798     0.4201790
H           2.4454540     1.9499539     0.4839909
C           3.4360623     0.1772941    -0.2364998
C           4.6653487    -0.4946254    -0.3109873
H           4.7157960    -1.4588345    -0.8065961
C           5.8134980     0.0581663     0.2551310
H           6.7574265    -0.4765497     0.1868572
18
307_C8H9F_3-0-4-13 (-45,) energy =    -410.1048953
C           1.6442287    -1.6271934    -0.0946317
H           0.9113652    -2.1729298    -0.7013925
H           1.1583925    -1.2969533     0.8322977
F           2.6613223    -2.5052570     0.2647511
C           2.2034777    -0.4250676    -0.8636221
H           2.4287530    -0.7464070    -1.8891448
H           1.4064524     0.3250580    -0.9376189
C           5.7656835     1.2842464     0.9058292
H           6.6611917     1.7129844     1.3478371
C           4.5378801     1.9332269     1.0357706
H           4.4706964     2.8719362     1.5796770
C           3.3915230     1.3794681     0.4623677
H           2.4380168     1.8940856     0.5636141
C           3.4506646     0.1745669    -0.2486661
C           4.6903437    -0.4689987    -0.3706296
H           4.7517603    -1.4093350    -0.9102853
C           5.8372191     0.0807035     0.2003538
H           6.7898090    -0.4319451     0.0941359
18
307_C8H9F_3-0-4-13 (-30,) energy =    -410.1018909
C           1.6062109    -1.6257561    -0.0793886
H           1.0642194    -2.3015914    -0.7513677
H           0.9169319    -1.2887685     0.7049602
F           2.6131130    -2.3454315     0.5524845
C           2.1712259    -0.4144241    -0.8485613
H           2.3915459    -0.7243416    -1.8783730
H           1.3838913     0.3454765    -0.9145316
C           5.7761166     1.2626625     0.8656269
H           6.6830514     1.6841075     1.2910273
C           4.5536972     1.9134325     1.0307321
H           4.5020489     2.8464687     1.5859693
C           3.3924521     1.3690104     0.4782705
H           2.4430182     1.8848105     0.6071391
C           3.4312778     0.1718129    -0.2461811
C           4.6657249    -0.4734656    -0.4029203
H           4.7120685    -1.4076545    -0.9557162
C           5.8275761     0.0661727     0.1462494
H           6.7757873    -0.4481023     0.0123575
18
307_C8H9F_3-0-4-13 (-15,) energy =    -410.0990758
C           1.5992934    -1.6359034    -0.0731302
H           1.2903619    -2.4248333    -0.7685264
H           0.7284987    -1.3468403     0.5275159
F           2.5340031    -2.1732479     0.8025197
C           2.1599117    -0.4068050    -0.8354179
H           2.3669707    -0.6977516    -1.8728589
H           1.3823117     0.3636363    -0.8801238
C           5.7868357     1.2474793     0.8540234
H           6.6992560     1.6643137     1.2721406
C           4.5666512     1.8952771     1.0443941
H           4.5217579     2.8211083     1.6121406
C           3.3979427     1.3572910     0.5012973
H           2.4502758     1.8705119     0.6509107
C           3.4273211     0.1694982    -0.2380309
C           4.6596077    -0.4726621    -0.4208694
H           4.7017781    -1.3986412    -0.9889136
C           5.8287935     0.0601799     0.1188152
H           6.7753847    -0.4514139    -0.0352050
18
307_C8H9F_3-0-4-13 (0,) energy =    -410.0977779
C           1.6192442    -1.6479433    -0.0736387
H           1.5655771    -2.5131875    -0.7445403
H           0.6147920    -1.4613984     0.3237947
F           2.4319692    -1.9983177     0.9966715
C           2.1534927    -0.3949870    -0.8234146
H           2.3249106    -0.6587567    -1.8741800
H           1.3808663     0.3814844    -0.8225283
C           5.8052272     1.2417392     0.8305852
H           6.7232640     1.6534770     1.2413782
C           4.5874930     1.8872866     1.0432075
H           4.5509596     2.8069965     1.6213656
C           3.4110135     1.3555351     0.5107649
H           2.4649545     1.8656940     0.6791424
C           3.4303745     0.1752253    -0.2399154
C           4.6604684    -0.4635025    -0.4474219
H           4.6958897    -1.3821603    -1.0286221
C           5.8373570     0.0624214     0.0823383
H           6.7816776    -0.4474880    -0.0901000
18
307_C8H9F_3-0-4-13 (15,) energy =    -410.0990793
C           1.4241092    -1.4051781     0.1016873
H           1.5867722    -2.4616790    -0.1430346
H           0.3493719    -1.1994652     0.0386036
F           1.8199155    -1.2311763     1.4218525
C           2.2249189    -0.4981489    -0.8689428
H           2.4798125    -1.0799052    -1.7616081
H           1.5758253     0.3190037    -1.2081093
C           5.8084636     1.2424033     0.8270865
H           6.7069929     1.6849562     1.2488386
C           4.5487134     1.7191512     1.1985822
H           4.4644524     2.5339148     1.9131077
C           3.3963620     1.1542412     0.6555570
H           2.4199841     1.5284170     0.9526250
C           3.4791644     0.1040855    -0.2692211
C           4.7463710    -0.3653428    -0.6324287
H           4.8293196    -1.1785329    -1.3505352
C           5.9043370     0.1970479    -0.0907575
H           6.8788090    -0.1807762    -0.3893612
18
307_C8H9F_3-0-4-13 (30,) energy =    -410.1018911
C           1.4522614    -1.4369134     0.0439001
H           1.8268068    -2.4624606    -0.0649967
H           0.3795923    -1.4327723    -0.1828423
F           1.6230683    -1.0860140     1.3776262
C           2.2211762    -0.4865117    -0.8959582
H           2.4533772    -1.0324306    -1.8177675
H           1.5557013     0.3383390    -1.1821651
C           5.8155558     1.2042051     0.8262566
H           6.7167311     1.6332578     1.2562591
C           4.5589379     1.6795953     1.2092254
H           4.4792070     2.4791781     1.9412250
C           3.4026094     1.1326294     0.6557694
H           2.4289553     1.5034839     0.9637785
C           3.4790997     0.1023360    -0.2917064
C           4.7438370    -0.3667511    -0.6659272
H           4.8221094    -1.1640828    -1.4022872
C           5.9051027     0.1779441    -0.1138438
H           6.8773787    -0.1980751    -0.4217280
18
307_C8H9F_3-0-4-13 (45,) energy =    -410.1048949
C           1.4660236    -1.4245742     0.0240232
H           2.0003393    -2.3799213     0.1020862
H           0.4513370    -1.6172735    -0.3451396
F           1.3759604    -0.8979242     1.3082644
C           2.2149250    -0.4674438    -0.9101362
H           2.4392217    -1.0109740    -1.8361836
H           1.5352269     0.3508876    -1.1821415
C           5.8231216     1.1910111     0.8146451
H           6.7283498     1.6088569     1.2472162
C           4.5699983     1.6610709     1.2147248
H           4.4972011     2.4458302     1.9633004
C           3.4083015     1.1281995     0.6579436
H           2.4376583     1.4929273     0.9805115
C           3.4769247     0.1167132    -0.3106037
C           4.7386385    -0.3475085    -0.7022146
H           4.8105070    -1.1295408    -1.4555592
C           5.9043567     0.1837012    -0.1467148
H           6.8738812    -0.1878166    -0.4684065
18
307_C8H9F_3-0-4-13 (60,) energy =    -410.1067317
C           1.4435665    -1.3776746     0.0406738
H           2.0573030    -2.2263920     0.3666325
H           0.5382860    -1.7595008    -0.4475930
F           1.0553738    -0.6734074     1.1787461
C           2.2254107    -0.4717628    -0.9079408
H           2.4642910    -1.0578253    -1.8046404
H           1.5553790     0.3366581    -1.2294594
C           5.8444270     1.1721510     0.8095305
H           6.7524992     1.5856667     1.2402778
C           4.5937553     1.6074478     1.2538582
H           4.5257589     2.3605886     2.0347183
C           3.4273361     1.0812082     0.6999136
H           2.4588532     1.4164605     1.0570041
C           3.4897984     0.1090932    -0.3096750
C           4.7496660    -0.3200151    -0.7456332
H           4.8165458    -1.0707908    -1.5305322
C           5.9194064     0.2053584    -0.1931579
H           6.8869334    -0.1393507    -0.5489947
18
307_C8H9F_3-0-4-13 (75,) energy =    -410.1068151
C           1.3803636    -1.3125176     0.0699869
H           1.9777034    -1.9719082     0.7100837
H           0.6329396    -1.9123587    -0.4638934
F           0.6860743    -0.4204366     0.8914048
C           2.2558430    -0.5467785    -0.9178904
H           2.5341294    -1.2371034    -1.7246553
H           1.6280144     0.2292254    -1.3763017
C           5.8443038     1.1778688     0.7878591
H           6.7446939     1.6120884     1.2143222
C           4.5902506     1.5062603     1.3080556
H           4.5118430     2.1973957     2.1434334
C           3.4333316     0.9529354     0.7602623
H           2.4618670     1.2033657     1.1741035
C           3.5096190     0.0574225    -0.3179379
C           4.7726940    -0.2661171    -0.8284470
H           4.8499265    -0.9585569    -1.6642629
C           5.9323878     0.2885640    -0.2831596
H           6.9026831     0.0241864    -0.6957421
18
307_C8H9F_3-0-4-13 (90,) energy =    -410.1049482
C           1.4115160    -1.2514700     0.1081963
H           1.9965425    -1.6906539     0.9233763
H           0.8221267    -2.0410392    -0.3739334
F           0.5004883    -0.3439618     0.6569563
C           2.3018380    -0.5396390    -0.9140678
H           2.5718869    -1.2558941    -1.7003489
H           1.6839704     0.2290814    -1.3960307
C           5.9041918     1.1624802     0.7771840
H           6.8066086     1.5911714     1.2048379
C           4.6550652     1.4612951     1.3271650
H           4.5822203     2.1246482     2.1852201
C           3.4974301     0.9126016     0.7772121
H           2.5256250     1.1421876     1.2063775
C           3.5676568     0.0530973    -0.3301247
C           4.8241436    -0.2406176    -0.8709685
H           4.8957067    -0.9061186    -1.7288230
C           5.9855032     0.3096804    -0.3237592
H           6.9527500     0.0688102    -0.7573494
18
307_C8H9F_3-0-4-13 (105,) energy =    -410.1020378
C           1.4026683    -1.2763541     0.1143606
H           1.9708497    -1.5290448     1.0158550
H           1.0156472    -2.2015408    -0.3294319
F           0.2967194    -0.5129007     0.4938037
C           2.2576570    -0.4943413    -0.8992041
H           2.5043486    -1.1463202    -1.7456053
H           1.6180389     0.3020202    -1.2993235
C           5.8966530     1.1368865     0.7826456
H           6.8077185     1.5479946     1.2091432
C           4.6535516     1.4651632     1.3303143
H           4.5940369     2.1346689     2.1845567
C           3.4862027     0.9380061     0.7806950
H           2.5184113     1.1949820     1.2062561
C           3.5382205     0.0727560    -0.3230574
C           4.7880818    -0.2492049    -0.8618375
H           4.8462188    -0.9186094    -1.7175917
C           5.9603814     0.2786616    -0.3149409
H           6.9226276     0.0164575    -0.7471811
18
307_C8H9F_3-0-4-13 (120,) energy =    -410.1005656
C           1.4227572    -1.3347420     0.0872379
H           1.9437350    -1.4384867     1.0454096
H           1.2742102    -2.3338172    -0.3392357
F           0.1625096    -0.7962446     0.3445529
C           2.2055128    -0.4189477    -0.8800415
H           2.4061337    -0.9473880    -1.8186602
H           1.5313123     0.4100274    -1.1266493
C           5.9042765     1.0961494     0.7842355
H           6.8305087     1.4763273     1.2066368
C           4.6745056     1.4971776     1.3128811
H           4.6406753     2.1930452     2.1472128
C           3.4869048     1.0108883     0.7686679
H           2.5321134     1.3304416     1.1815158
C           3.5035815     0.1151543    -0.3112686
C           4.7415644    -0.2779097    -0.8316039
H           4.7730539    -0.9696866    -1.6707391
C           5.9344298     0.2075469    -0.2902822
H           6.8856913    -0.1095898    -0.7098045
18
307_C8H9F_3-0-4-13 (135,) energy =    -410.1014335
C           1.4520317    -1.3580950     0.0099523
H           1.8662772    -1.3393195     1.0245612
H           1.5465332    -2.3761693    -0.3857488
F           0.0955773    -1.0544265     0.1079058
C           2.1633392    -0.3238642    -0.8876358
H           2.3124441    -0.7272021    -1.8950272
H           1.4666593     0.5176499    -0.9825522
C           5.9083823     1.0570921     0.7917208
H           6.8465805     1.4014368     1.2184044
C           4.6933551     1.5346682     1.2889443
H           4.6827449     2.2548300     2.1030009
C           3.4901722     1.0948309     0.7385256
H           2.5484645     1.4765388     1.1279047
C           3.4759643     0.1708616    -0.3167394
C           4.7009215    -0.2979527    -0.8067576
H           4.7095526    -1.0103857    -1.6290102
C           5.9087874     0.1396848    -0.2590809
H           6.8486820    -0.2353057    -0.6558470
18
307_C8H9F_3-0-4-13 (150,) energy =    -410.1036988
C           1.4861455    -1.3497809    -0.0140883
H           1.7344577    -1.2064159     1.0445285
H           1.8004566    -2.3572730    -0.3116080
F           0.1011997    -1.2625960    -0.1347495
C           2.1510226    -0.2609550    -0.8697879
H           2.2651170    -0.6045690    -1.9036956
H           1.4448108     0.5780749    -0.8873372
C           5.9302959     1.0430223     0.7931715
H           6.8777127     1.3683728     1.2143721
C           4.7285166     1.5561474     1.2864022
H           4.7375551     2.2847235     2.0929216
C           3.5136294     1.1415297     0.7412288
H           2.5825639     1.5515890     1.1273647
C           3.4748989     0.2087573    -0.3050276
C           4.6874221    -0.2972806    -0.7904107
H           4.6762780    -1.0168574    -1.6063827
C           5.9062752     0.1148499    -0.2482278
H           6.8359803    -0.2871027    -0.6425105
18
307_C8H9F_3-0-4-13 (165,) energy =    -410.1058189
C           1.4993756    -1.3411095    -0.0051643
H           1.5552070    -1.0917511     1.0616912
H           2.0025668    -2.3026776    -0.1642099
F           0.1559942    -1.4805853    -0.3431798
C           2.1283673    -0.2292719    -0.8478088
H           2.2262978    -0.5675844    -1.8853354
H           1.4194810     0.6078794    -0.8475294
C           5.9385379     1.0164731     0.7877220
H           6.8938712     1.3254839     1.2032906
C           4.7487427     1.5449242     1.2929592
H           4.7744125     2.2689034     2.1032439
C           3.5237206     1.1506205     0.7550506
H           2.6017761     1.5730825     1.1496451
C           3.4628691     0.2241533    -0.2956446
C           4.6641281    -0.2977514    -0.7928323
H           4.6363075    -1.0133034    -1.6119460
C           5.8927601     0.0940192    -0.2583156
H           6.8134723    -0.3192330    -0.6618682
18
307_C8H9F_3-0-4-13 (180,) energy =    -410.1066585
C           1.5273235    -1.3623882    -0.0186832
H           1.3968088    -1.1108469     1.0411818
H           2.1947919    -2.2301203    -0.0905064
F           0.2872959    -1.7171360    -0.5421193
C           2.0901106    -0.1740514    -0.7971183
H           2.1598433    -0.4595544    -1.8533318
H           1.3692540     0.6494167    -0.7321151
C           5.9515228     0.9921187     0.7722917
H           6.9205005     1.2793721     1.1715644
C           4.7847732     1.5675247     1.2786279
H           4.8417194     2.3060355     2.0740474
C           3.5419901     1.2004732     0.7611339
H           2.6371627     1.6579323     1.1560720
C           3.4416907     0.2561483    -0.2696524
C           4.6210411    -0.3136576    -0.7684372
H           4.5622962    -1.0436983    -1.5731381
C           5.8662388     0.0500342    -0.2543261
H           6.7695539    -0.3991768    -0.6587662
