18
307_C8H9F_0-4-13-11 (-165,) energy =    -410.1035971
C           1.7642614    -1.7374991    -0.6115236
H           2.4301745    -2.1702804    -1.3684809
H           0.7291761    -1.9653054    -0.8938991
F           2.0308632    -2.3639275     0.6027431
C           1.9573588    -0.2348461    -0.4926884
H           1.7059162     0.2016562    -1.4715142
H           1.2094752     0.1551001     0.2098211
C           5.8592103     1.2232699     0.7246354
H           6.8325991     1.6009247     1.0260275
C           4.7382341     2.0554948     0.7572419
H           4.8335690     3.0871231     1.0862271
C           3.4917636     1.5628154     0.3746265
H           2.6230237     2.2176084     0.4073163
C           3.3357277     0.2379802    -0.0581114
C           4.4644373    -0.5898988    -0.0724006
H           4.3729405    -1.6326165    -0.3587829
C           5.7150013    -0.1009196     0.3127980
H           6.5766213    -0.7633949     0.2972815
18
307_C8H9F_0-4-13-11 (-150,) energy =    -410.1034030
C           1.7045455    -1.7183910    -0.4669130
H           2.4115012    -2.3081029    -1.0631719
H           0.6907376    -1.9423973    -0.8218365
F           1.8050371    -2.1335714     0.8564551
C           1.9789581    -0.2264180    -0.5766771
H           1.8481702     0.0483085    -1.6351327
H           1.1970222     0.3107108    -0.0263716
C           5.8495863     1.2219619     0.7448317
H           6.8166336     1.5972124     1.0687067
C           4.7113007     2.0225590     0.8503419
H           4.7858093     3.0272163     1.2585392
C           3.4719050     1.5327284     0.4386427
H           2.5886136     2.1614269     0.5306695
C           3.3406358     0.2414845    -0.0896935
C           4.4910825    -0.5511581    -0.1896692
H           4.4264214    -1.5615119    -0.5833967
C           5.7330523    -0.0675755     0.2251686
H           6.6108202    -0.7035050     0.1436125
18
307_C8H9F_0-4-13-11 (-135,) energy =    -410.1040161
C           1.6762604    -1.7021304    -0.3244809
H           2.4382215    -2.3963135    -0.6990608
H           0.7135121    -1.9723445    -0.7769902
F           1.5741954    -1.8760795     1.0513690
C           2.0213001    -0.2543654    -0.6463381
H           1.9902359    -0.1499045    -1.7419198
H           1.2217350     0.3848667    -0.2542834
C           5.8491476     1.2130014     0.7679548
H           6.8081182     1.5891254     1.1140795
C           4.6894732     1.9666234     0.9494170
H           4.7387942     2.9358219     1.4389654
C           3.4601150     1.4765877     0.5058085
H           2.5600493     2.0688397     0.6555328
C           3.3619302     0.2293638    -0.1228414
C           4.5365660    -0.5130139    -0.3071771
H           4.4974827    -1.4795613    -0.8037798
C           5.7673052    -0.0296893     0.1368736
H           6.6645102    -0.6248145    -0.0126471
18
307_C8H9F_0-4-13-11 (-120,) energy =    -410.1048282
C           1.6521875    -1.6581372    -0.2175677
H           2.4267012    -2.4086985    -0.4183646
H           0.7181265    -1.9852615    -0.6924980
F           1.4458030    -1.6079811     1.1566022
C           2.0606978    -0.2829359    -0.7336095
H           2.1083119    -0.3467928    -1.8307496
H           1.2600901     0.4268428    -0.4958413
C           5.8384132     1.1945354     0.7894311
H           6.7867275     1.5678145     1.1666358
C           4.6585770     1.8975012     1.0327459
H           4.6819834     2.8229047     1.6023670
C           3.4423610     1.4144988     0.5458400
H           2.5260713     1.9664309     0.7423740
C           3.3808687     0.2235950    -0.1862918
C           4.5752923    -0.4689673    -0.4308256
H           4.5570949    -1.3888211    -1.0120101
C           5.7925161     0.0080722     0.0538862
H           6.7068226    -0.5445062    -0.1466427
18
307_C8H9F_0-4-13-11 (-105,) energy =    -410.1054888
C           1.6142129    -1.5944913    -0.1172304
H           2.3764134    -2.3828390    -0.1549552
H           0.6976079    -1.9664612    -0.5932321
F           1.3318476    -1.3287033     1.2182920
C           2.1026006    -0.3232895    -0.8058578
H           2.2156518    -0.5503579    -1.8752533
H           1.3170122     0.4366931    -0.7239270
C           5.8289863     1.1779481     0.8075293
H           6.7647869     1.5540070     1.2122749
C           4.6256866     1.8169190     1.1083950
H           4.6196657     2.6935569     1.7509318
C           3.4252544     1.3339030     0.5845379
H           2.4902340     1.8339891     0.8254220
C           3.4054391     0.2062604    -0.2439388
C           4.6215082    -0.4238496    -0.5428304
H           4.6289686    -1.2941807    -1.1965886
C           5.8234866     0.0541121    -0.0215509
H           6.7562507    -0.4469101    -0.2674018
18
307_C8H9F_0-4-13-11 (-90,) energy =    -410.1061921
C           1.5592369    -1.5158683    -0.0252036
H           2.2889805    -2.3232195     0.1131023
H           0.6608972    -1.9262412    -0.5041537
F           1.1988077    -1.0372498     1.2311876
C           2.1483748    -0.3809442    -0.8591462
H           2.3173538    -0.7662669    -1.8736213
H           1.3942013     0.4109154    -0.9388691
C           5.8243757     1.1731630     0.8128536
H           6.7470744     1.5622419     1.2350935
C           4.5959789     1.7293634     1.1744477
H           4.5583863     2.5532215     1.8824505
C           3.4127135     1.2316768     0.6278581
H           2.4581025     1.6628757     0.9180621
C           3.4358493     0.1710289    -0.2864904
C           4.6746594    -0.3776472    -0.6431992
H           4.7120755    -1.1953926    -1.3605755
C           5.8605835     0.1164394    -0.0985273
H           6.8123348    -0.3196889    -0.3909132
18
307_C8H9F_0-4-13-11 (-75,) energy =    -410.1068435
C           1.4845296    -1.4248972     0.0365445
H           2.1591197    -2.2226119     0.3701436
H           0.6183782    -1.8754288    -0.4644013
F           1.0223479    -0.7500378     1.1652457
C           2.2017652    -0.4523048    -0.8961195
H           2.4269320    -0.9885537    -1.8272918
H           1.4972230     0.3486007    -1.1533790
C           5.8304431     1.1831256     0.8047854
H           6.7408525     1.5941066     1.2329964
C           4.5822541     1.6409588     1.2330041
H           4.5186513     2.4095367     1.9990057
C           3.4138150     1.1172539     0.6805523
H           2.4452822     1.4677850     1.0246458
C           3.4720015     0.1256681    -0.3094386
C           4.7290696    -0.3253358    -0.7306214
H           4.7921988    -1.0897926    -1.5025795
C           5.9007656     0.1968328    -0.1794007
H           6.8667587    -0.1643451    -0.5228296
18
307_C8H9F_0-4-13-11 (-60,) energy =    -410.1069791
C           1.3956038    -1.3338243     0.0760923
H           1.9989723    -2.0630472     0.6294888
H           0.5943435    -1.8622830    -0.4551944
F           0.7942357    -0.4807258     1.0034637
C           2.2501564    -0.5363334    -0.9043902
H           2.5237467    -1.2069041    -1.7291724
H           1.6102660     0.2445665    -1.3374962
C           5.8407168     1.1984792     0.7890662
H           6.7422986     1.6346122     1.2110655
C           4.5860619     1.5484407     1.2933134
H           4.5086945     2.2586414     2.1126498
C           3.4275131     0.9928670     0.7510386
H           2.4566134     1.2612784     1.1538316
C           3.5024836     0.0733271    -0.3068056
C           4.7664922    -0.2714767    -0.8016019
H           4.8431964    -0.9817826    -1.6223617
C           5.9275849     0.2852366    -0.2615961
H           6.8979289     0.0043471    -0.6629894
18
307_C8H9F_0-4-13-11 (-45,) energy =    -410.1067695
C           1.3177261    -1.2369195     0.0954837
H           1.8312377    -1.8722769     0.8265726
H           0.5633990    -1.8348781    -0.4301664
F           0.6382060    -0.2361318     0.7967846
C           2.2983827    -0.6254374    -0.8982302
H           2.6054437    -1.4178454    -1.5931579
H           1.7383803     0.1060867    -1.4982880
C           5.8467224     1.2181560     0.7752479
H           6.7383816     1.6814321     1.1892976
C           4.5973749     1.4583999     1.3501560
H           4.5125398     2.1102514     2.2159694
C           3.4500534     0.8678327     0.8197535
H           2.4838928     1.0572919     1.2741629
C           3.5323563     0.0201230    -0.2956952
C           4.7929311    -0.2170290    -0.8597836
H           4.8768686    -0.8751064    -1.7223653
C           5.9411785     0.3771107    -0.3339700
H           6.9082910     0.1784634    -0.7887777
18
307_C8H9F_0-4-13-11 (-30,) energy =    -410.1063043
C           1.2564647    -1.1484836     0.0987087
H           1.6775575    -1.6953460     0.9507350
H           0.5185560    -1.7853323    -0.4036425
F           0.5722703    -0.0359474     0.5975379
C           2.3406345    -0.7211386    -0.8802141
H           2.6706418    -1.6176400    -1.4217534
H           1.8645275    -0.0738809    -1.6313477
C           5.8392829     1.2407306     0.7681238
H           6.7210091     1.7284459     1.1752558
C           4.6034576     1.3783718     1.4006326
H           4.5176998     1.9765485     2.3042872
C           3.4681680     0.7544175     0.8797678
H           2.5102286     0.8780925     1.3725322
C           3.5512330    -0.0245306    -0.2831871
C           4.8001685    -0.1593972    -0.9059990
H           4.8857736    -0.7671082    -1.8047804
C           5.9339114     0.4688734    -0.3912741
H           6.8915699     0.3489371    -0.8914633
18
307_C8H9F_0-4-13-11 (-15,) energy =    -410.1055043
C           1.2098707    -1.0624680     0.0709322
H           1.5274935    -1.5394558     1.0061534
H           0.4657426    -1.7028375    -0.4174437
F           0.5791241     0.1408240     0.3957892
C           2.3879896    -0.8182201    -0.8575369
H           2.7267420    -1.7967967    -1.2247857
H           2.0080715    -0.2827299    -1.7397973
C           5.8334855     1.2620654     0.7610215
H           6.7052360     1.7737656     1.1600700
C           4.6174804     1.3057357     1.4416372
H           4.5359548     1.8564523     2.3753039
C           3.4947551     0.6499152     0.9302702
H           2.5489877     0.7171976     1.4562667
C           3.5719155    -0.0662932    -0.2711859
C           4.8017505    -0.1045028    -0.9449841
H           4.8824356    -0.6620161    -1.8763354
C           5.9211300     0.5547920    -0.4402146
H           6.8632534     0.5104501    -0.9806655
18
307_C8H9F_0-4-13-11 (0,) energy =    -410.1045079
C           1.1828774    -1.0010353     0.0918201
H           1.4071463    -1.4143232     1.0830164
H           0.4267051    -1.6342100    -0.3874963
F           0.6272019     0.2654544     0.2723555
C           2.4298390    -0.9236055    -0.7719769
H           2.7610952    -1.9555173    -0.9586533
H           2.1390334    -0.5212736    -1.7523856
C           5.8369575     1.2882980     0.7514671
H           6.7015503     1.8291010     1.1269481
C           4.6609605     1.2349172     1.4977903
H           4.6021288     1.7396106     2.4587318
C           3.5475262     0.5407954     1.0166860
H           2.6306296     0.5425314     1.5959084
C           3.5922820    -0.1129335    -0.2204622
C           4.7810863    -0.0489082    -0.9628917
H           4.8353702    -0.5534348    -1.9258910
C           5.8921301     0.6443268    -0.4870543
H           6.8018603     0.6795059    -1.0810211
18
307_C8H9F_0-4-13-11 (15,) energy =    -410.1036561
C           1.1403789    -0.8939169     0.0216426
H           1.2415825    -1.2228636     1.0634418
H           0.3782144    -1.5161167    -0.4630453
F           0.6856735     0.4219529     0.0300255
C           2.4590625    -0.9996790    -0.7257211
H           2.7510391    -2.0609101    -0.7199573
H           2.2807619    -0.7438931    -1.7783892
C           5.8278131     1.3105901     0.7351901
H           6.6829121     1.8764717     1.0950527
C           4.6902772     1.1723316     1.5293997
H           4.6524290     1.6351585     2.5121914
C           3.5894500     0.4465086     1.0679626
H           2.7041827     0.3784430     1.6918836
C           3.6054025    -0.1519166    -0.1973973
C           4.7533195     0.0006940    -0.9885733
H           4.7827253    -0.4543731    -1.9768229
C           5.8546191     0.7220252    -0.5310408
H           6.7323461     0.8264919    -1.1637116
18
307_C8H9F_0-4-13-11 (30,) energy =    -410.1033774
C           1.1129325    -0.8031254    -0.0672639
H           1.1007705    -0.9687878     1.0169919
H           0.3643061    -1.4646974    -0.5208297
F           0.7340763     0.5133120    -0.3068289
C           2.4840437    -1.0778310    -0.6651683
H           2.7129657    -2.1377181    -0.4725908
H           2.4129211    -0.9780289    -1.7551269
C           5.8136715     1.3332573     0.7235507
H           6.6563139     1.9284735     1.0649476
C           4.7315006     1.0941895     1.5708393
H           4.7258858     1.5052345     2.5770954
C           3.6475625     0.3315053     1.1324636
H           2.8130186     0.1699029     1.8085701
C           3.6222682    -0.2057855    -0.1606352
C           4.7124373     0.0495756    -1.0034964
H           4.7068452    -0.3508036    -2.0152619
C           5.7999144     0.8071288    -0.5691640
H           6.6326938     0.9912214    -1.2430449
18
307_C8H9F_0-4-13-11 (45,) energy =    -410.1039101
C           1.1117601    -0.7060603    -0.1607916
H           1.0251152    -0.6375864     0.9302614
H           0.3625922    -1.4234029    -0.5196615
F           0.8110053     0.5414505    -0.6962521
C           2.5049203    -1.1422300    -0.5932606
H           2.6509178    -2.1690573    -0.2230926
H           2.5208680    -1.2065661    -1.6874158
C           5.8012912     1.3547470     0.7157504
H           6.6311754     1.9770588     1.0396403
C           4.7887742     1.0098249     1.6128064
H           4.8272247     1.3631508     2.6400370
C           3.7222853     0.2126729     1.1968250
H           2.9469495    -0.0462282     1.9136295
C           3.6452090    -0.2571725    -0.1213882
C           4.6642932     0.1027636    -1.0117564
H           4.6154961    -0.2424402    -2.0421987
C           5.7355232     0.8971882    -0.6004061
H           6.5140843     1.1627390    -1.3108780
18
307_C8H9F_0-4-13-11 (60,) energy =    -410.1048004
C           1.1264470    -0.6244636    -0.2587377
H           0.9870304    -0.3560722     0.7956858
H           0.3490838    -1.3463552    -0.5407958
F           0.9500056     0.5234036    -1.0233666
C           2.5122697    -1.2093954    -0.5071875
H           2.5615711    -2.1676431     0.0312383
H           2.6019234    -1.4453916    -1.5737054
C           5.7709400     1.3745897     0.7090506
H           6.5870203     2.0243110     1.0136262
C           4.8398479     0.9280682     1.6495395
H           4.9295313     1.2282195     2.6904096
C           3.7929449     0.0947081     1.2575872
H           3.0800238    -0.2513023     2.0033466
C           3.6564185    -0.3119697    -0.0773778
C           4.5934409     0.1470010    -1.0098146
H           4.4968496    -0.1501495    -2.0515464
C           5.6444361     0.9808677    -0.6229865
H           6.3609978     1.3245718    -1.3644836
18
307_C8H9F_0-4-13-11 (75,) energy =    -410.1055460
C           1.1512992    -0.5784462    -0.3737563
H           0.9567601    -0.1425629     0.6141676
H           0.3479041    -1.2877285    -0.6116057
F           1.1172145     0.4456392    -1.3136748
C           2.5106532    -1.2713001    -0.4113328
H           2.4601465    -2.1337057     0.2680612
H           2.6653205    -1.6707094    -1.4204081
C           5.7456567     1.3832496     0.6974968
H           6.5535827     2.0548392     0.9753715
C           4.9070832     0.8485849     1.6779190
H           5.0605002     1.1019381     2.7237617
C           3.8731876    -0.0155127     1.3181015
H           3.2295762    -0.4322617     2.0907739
C           3.6597836    -0.3650761    -0.0226140
C           4.5026201     0.1834482    -0.9959405
H           4.3426284    -0.0682975    -2.0415541
C           5.5394943     1.0481485    -0.6411427
H           6.1850551     1.4607545    -1.4121075
18
307_C8H9F_0-4-13-11 (90,) energy =    -410.1062992
C           1.1829947    -0.5351018    -0.5069024
H           0.9410226     0.0617059     0.3810342
H           0.3583089    -1.2320344    -0.7040079
F           1.2873980     0.3282733    -1.5940752
C           2.4969938    -1.2894899    -0.3197851
H           2.3420329    -2.0397135     0.4671797
H           2.7095721    -1.8372983    -1.2457142
C           5.7368220     1.3908041     0.6983193
H           6.5448001     2.0716991     0.9524879
C           4.9897713     0.7799919     1.7067923
H           5.2134713     0.9830794     2.7509377
C           3.9555512    -0.0969298     1.3766617
H           3.3813537    -0.5736091     2.1689919
C           3.6545862    -0.3833846     0.0387383
C           4.4046767     0.2441137    -0.9643300
H           4.1690861     0.0461881    -2.0066573
C           5.4398896     1.1208195    -0.6389537
H           6.0140212     1.5949292    -1.4308106
18
307_C8H9F_0-4-13-11 (105,) energy =    -410.1068781
C           1.7601105    -1.3444084    -1.1338631
H           2.1080182    -0.8314495    -2.0385060
H           0.7190128    -1.6591779    -1.2793277
F           2.5334250    -2.4919065    -0.9641802
C           1.8845924    -0.4447406     0.0931403
H           1.1489500     0.3636537    -0.0086549
H           1.5885260    -1.0339634     0.9704687
C           5.8602834     1.1955955     0.5817021
H           6.8597992     1.6052400     0.7011360
C           4.8173963     2.0073705     0.1346996
H           5.0001153     3.0536722    -0.0964277
C           3.5339668     1.4780415    -0.0134883
H           2.7248264     2.1186650    -0.3587258
C           3.2698795     0.1353193     0.2841442
C           4.3275871    -0.6721903     0.7271988
H           4.1406511    -1.7194956     0.9445076
C           5.6107063    -0.1467202     0.8763197
H           6.4177197    -0.7869779     1.2232429
18
307_C8H9F_0-4-13-11 (120,) energy =    -410.1069802
C           1.7573985    -1.4463068    -1.0664922
H           2.2161805    -1.1082340    -2.0031514
H           0.7038231    -1.6896007    -1.2517692
F           2.3978553    -2.6230407    -0.6735225
C           1.8764107    -0.3856050     0.0236866
H           1.1906082     0.4322747    -0.2323139
H           1.4988650    -0.8281621     0.9555586
C           5.8620278     1.2092231     0.6049080
H           6.8608653     1.6109236     0.7535637
C           4.8123823     2.0524502     0.2403792
H           4.9883968     3.1161752     0.1022017
C           3.5306833     1.5315453     0.0522125
H           2.7168372     2.1965168    -0.2298118
C           3.2737954     0.1656211     0.2252372
C           4.3377801    -0.6729443     0.5924324
H           4.1581516    -1.7352020     0.7198077
C           5.6192200    -0.1551526     0.7788607
H           6.4309477    -0.8202725     1.0623946
18
307_C8H9F_0-4-13-11 (135,) energy =    -410.1067869
C           1.7715962    -1.5453556    -0.9984163
H           2.3318983    -1.3870654    -1.9273603
H           0.7211877    -1.7434153    -1.2441022
F           2.2765574    -2.6936175    -0.3810625
C           1.8815524    -0.3427653    -0.0685966
H           1.2555369     0.4567247    -0.4857605
H           1.4175845    -0.6264104     0.8869515
C           5.8640267     1.2175771     0.6359917
H           6.8595368     1.6136313     0.8182327
C           4.8050231     2.0802216     0.3517854
H           4.9704735     3.1537411     0.3092584
C           3.5289437     1.5659735     0.1165998
H           2.7095272     2.2461844    -0.1069894
C           3.2844437     0.1870558     0.1628696
C           4.3567120    -0.6704591     0.4538743
H           4.1870369    -1.7408042     0.4907569
C           5.6339928    -0.1586283     0.6840549
H           6.4522401    -0.8396458     0.9041540
18
307_C8H9F_0-4-13-11 (150,) energy =    -410.1063457
C           1.7763892    -1.6159605    -0.9069659
H           2.4056401    -1.6238119    -1.8048970
H           0.7361304    -1.8024403    -1.1994266
F           2.1750191    -2.6808027    -0.0932253
C           1.8879076    -0.2946459    -0.1593775
H           1.3352809     0.4596353    -0.7351944
H           1.3425026    -0.4094750     0.7887450
C           5.8680455     1.2182137     0.6612462
H           6.8615978     1.6051107     0.8716419
C           4.7996864     2.0939126     0.4600476
H           4.9564699     3.1683743     0.5111309
C           3.5276838     1.5918147     0.1857827
H           2.7020745     2.2822899     0.0243757
C           3.2946441     0.2114601     0.1081145
C           4.3729961    -0.6587627     0.3231660
H           4.2108993    -1.7302378     0.2853987
C           5.6484135    -0.1577470     0.5907193
H           6.4721942    -0.8491126     0.7492405
18
307_C8H9F_0-4-13-11 (165,) energy =    -410.1055289
C           1.7794420    -1.6712520    -0.8162026
H           2.4374684    -1.8232111    -1.6804625
H           0.7457483    -1.8771007    -1.1184105
F           2.1265450    -2.6112151     0.1573736
C           1.8994040    -0.2591283    -0.2671175
H           1.4321571     0.4184213    -0.9952610
H           1.2768426    -0.2017787     0.6374262
C           5.8639091     1.2275684     0.6749009
H           6.8524306     1.6113392     0.9127186
C           4.7793443     2.1000266     0.5583698
H           4.9192853     3.1680083     0.7049017
C           3.5143751     1.6034104     0.2489399
H           2.6760620     2.2911444     0.1540968
C           3.3032051     0.2313197     0.0479258
C           4.3946748    -0.6359102     0.1858695
H           4.2484600    -1.7048011     0.0775722
C           5.6651785    -0.1398423     0.4889821
H           6.4994009    -0.8299467     0.5866894
18
307_C8H9F_0-4-13-11 (180,) energy =    -410.1044747
C           1.7773277    -1.7193810    -0.7135922
H           2.4377714    -2.0098885    -1.5400815
H           0.7423688    -1.9427280    -0.9989619
F           2.0968878    -2.5122295     0.3883911
C           1.9242480    -0.2453795    -0.3776076
H           1.5596893     0.3241442    -1.2451095
H           1.2315479    -0.0145204     0.4434719
C           5.8613719     1.2275621     0.6969342
H           6.8429220     1.6094827     0.9646603
C           4.7584598     2.0841180     0.6568718
H           4.8768931     3.1382275     0.8944762
C           3.5023912     1.5885407     0.3131789
H           2.6488593     2.2633859     0.2827607
C           3.3182816     0.2345417    -0.0050602
C           4.4269290    -0.6178810     0.0586558
H           4.3066966    -1.6794118    -0.1280124
C           5.6885244    -0.1233789     0.4005307
H           6.5356314    -0.8032184     0.4430748
