22
142_C11H8N2O_6-7-17-16 (-165,) energy =    -608.6997280
C           0.7449617     0.2259578    -0.7552594
H           1.5725449     0.6109205    -1.3363461
C          -0.5644033     0.5082582    -1.1439730
H          -0.7432353     1.1041664    -2.0348832
C          -1.6406216     0.0324158    -0.3936415
H          -2.6591275     0.2625515    -0.6955648
C           0.9905989    -0.5510886     0.3886142
C           2.3502073    -0.9755681     0.8518037
C          -1.4060830    -0.7435760     0.7453025
H          -2.2405498    -1.1189805     1.3313792
C           5.8658190     1.1671280    -0.0121856
H           6.7805707     1.7200656    -0.1985574
C           5.8813666    -0.1598787     0.4208825
H           6.8202980    -0.6889050     0.5781624
C          -0.1020070    -1.0417289     1.1252427
H           0.0990944    -1.6587662     1.9945804
N           4.7659036    -0.8467630     0.6687618
C           3.6085362    -0.2008672     0.4603415
N           3.4787443     1.0626425     0.0331051
C           4.6109716     1.7387342    -0.1952838
H           4.4999189     2.7672798    -0.5345410
O           2.4811942    -1.9268849     1.6046018
22
142_C11H8N2O_6-7-17-16 (-150,) energy =    -608.7005866
C           0.7795192     0.2307907    -0.7092706
H           1.6261750     0.6318308    -1.2521418
C          -0.5139506     0.4649909    -1.1746047
H          -0.6624787     1.0400211    -2.0845109
C          -1.6138618    -0.0332090    -0.4744869
H          -2.6206849     0.1572995    -0.8370337
C           0.9842025    -0.5158989     0.4620144
C           2.3326963    -0.8718798     0.9995739
C          -1.4191523    -0.7790859     0.6920961
H          -2.2733060    -1.1703446     1.2380094
C           5.8587849     1.1410637    -0.0720684
H           6.7809381     1.6615098    -0.3087550
C           5.8383380    -0.2218361     0.2282717
H           6.7527965    -0.8131932     0.2223179
C          -0.1298921    -1.0252514     1.1513012
H           0.0440846    -1.6142612     2.0456655
N           4.7154499    -0.8704631     0.5418548
C           3.5877940    -0.1448776     0.5264561
N           3.4870358     1.1580286     0.2289396
C           4.6300688     1.7936179    -0.0574653
H           4.5489094     2.8554677    -0.2837577
O           2.4670147    -1.7308155     1.8562169
22
142_C11H8N2O_6-7-17-16 (-135,) energy =    -608.7008273
C           0.8020965     0.2516515    -0.6518419
H           1.6601373     0.6880468    -1.1490220
C          -0.4723176     0.4278882    -1.1895744
H          -0.5958726     0.9929743    -2.1093245
C          -1.5859121    -0.1167038    -0.5478705
H          -2.5782479     0.0256049    -0.9678472
C           0.9721541    -0.4785440     0.5346697
C           2.3052153    -0.7535879     1.1463629
C          -1.4247009    -0.8461417     0.6345287
H          -2.2904574    -1.2720229     1.1342537
C           5.8445117     1.0940280    -0.1383282
H           6.7734336     1.5706254    -0.4335939
C           5.7548196    -0.2845123     0.0576263
H           6.6168894    -0.9324208    -0.0934469
C          -0.1543172    -1.0294898     1.1690541
H          -0.0037206    -1.5997534     2.0797515
N           4.6244224    -0.8823929     0.4420864
C           3.5611430    -0.0828732     0.6036369
N           3.5217588     1.2428875     0.4126017
C           4.6750657     1.8230375     0.0565850
H           4.6505581     2.9028083    -0.0805491
O           2.4356308    -1.5132577     2.0928149
22
142_C11H8N2O_6-7-17-16 (-120,) energy =    -608.7004060
C           0.8879001     0.4890860     0.8113849
H           1.7762029     1.0671397     1.0405727
C          -0.3139803     0.7828384     1.4543567
H          -0.3570611     1.5951978     2.1745139
C          -1.4582520     0.0335928     1.1749605
H          -2.3936911     0.2639539     1.6781285
C           0.9512862    -0.5588126    -0.1193572
C           2.1945599    -0.9024787    -0.8651040
C          -1.4022052    -1.0129114     0.2483144
H          -2.2933043    -1.5952376     0.0305523
C           5.8342871     1.0629483    -0.1891868
H           6.7932844     1.5442767    -0.0284599
C           5.1816792     1.1185748    -1.4205587
H           5.6098521     1.6606293    -2.2622654
C          -0.2055776    -1.3063635    -0.3959806
H          -0.1377571    -2.1095122    -1.1225050
N           4.0091788     0.5153372    -1.6389257
C           3.4811940    -0.1333495    -0.5932344
N           3.9955980    -0.2239408     0.6402095
C           5.1834993     0.3662758     0.8255157
H           5.6155073     0.2805443     1.8211893
O           2.2256667    -1.7784420    -1.7142556
22
142_C11H8N2O_6-7-17-16 (-105,) energy =    -608.6997167
C           0.9021437     0.5083086     0.7658489
H           1.7944602     1.0886881     0.9775646
C          -0.3068692     0.8516633     1.3695821
H          -0.3529024     1.7018478     2.0443809
C          -1.4552956     0.1023311     1.1073273
H          -2.3971096     0.3709181     1.5785724
C           0.9677865    -0.5883508    -0.1057582
C           2.2284911    -0.9852964    -0.7893198
C          -1.3962731    -0.9935283     0.2394453
H          -2.2911802    -1.5753443     0.0365255
C           5.8120357     1.1003299    -0.1804863
H           6.7556458     1.6167348    -0.0386795
C           5.0433675     1.2785332    -1.3298348
H           5.3612515     1.9531430    -2.1231977
C          -0.1917913    -1.3371709    -0.3642047
H          -0.1197707    -2.1807461    -1.0431050
N           3.8838204     0.6402408    -1.5232853
C           3.4980162    -0.1796785    -0.5382929
N           4.1324586    -0.4060092     0.6185357
C           5.2981382     0.2330630     0.7805729
H           5.8264024     0.0453135     1.7139018
O           2.2910890    -1.9263507    -1.5631847
22
142_C11H8N2O_6-7-17-16 (-90,) energy =    -608.6994415
C           0.8915133     0.5561429     0.7045157
H           1.7764181     1.1588862     0.8847648
C          -0.3278988     0.9293767     1.2682192
H          -0.3892610     1.8208483     1.8860756
C          -1.4677531     0.1568828     1.0373963
H          -2.4179903     0.4484691     1.4769888
C           0.9761364    -0.5935746    -0.0935797
C           2.2556912    -1.0307812    -0.7125347
C          -1.3898434    -0.9914645     0.2417097
H          -2.2784777    -1.5907976     0.0637593
C           5.8170555     1.1139712    -0.1869304
H           6.7556172     1.6459637    -0.0718047
C           4.9184476     1.4236119    -1.2058510
H           5.1260198     2.2175918    -1.9213889
C          -0.1746339    -1.3654080    -0.3210723
H          -0.0869389    -2.2515542    -0.9414291
N           3.7586544     0.7733988    -1.3606107
C           3.5150051    -0.2028200    -0.4781543
N           4.2890960    -0.5764173     0.5474320
C           5.4416450     0.0908184     0.6814670
H           6.0780683    -0.2066952     1.5132947
O           2.3487832    -2.0311204    -1.4042770
22
142_C11H8N2O_6-7-17-16 (-75,) energy =    -608.6998663
C           0.8668409     0.6183750     0.6491260
H           1.7363913     1.2506091     0.7965060
C          -0.3690801     1.0094158     1.1626305
H          -0.4559539     1.9413644     1.7142071
C          -1.4926769     0.2044248     0.9661831
H          -2.4553210     0.5105049     1.3672628
C           0.9846832    -0.5829342    -0.0650132
C           2.2832200    -1.0557536    -0.6167854
C          -1.3819786    -0.9948595     0.2540922
H          -2.2575702    -1.6201042     0.1025934
C           5.8401884     1.1161603    -0.1867303
H           6.7775847     1.6560272    -0.1029374
C           4.8197723     1.5445088    -1.0322091
H           4.9271335     2.4412573    -1.6402619
C          -0.1504947    -1.3868166    -0.2587979
H          -0.0374582    -2.3132699    -0.8125212
N           3.6571729     0.8888306    -1.1406113
C           3.5395327    -0.2200778    -0.3995016
N           4.4450614    -0.7234325     0.4478793
C           5.5897701    -0.0397338     0.5516127
H           6.3275604    -0.4359605     1.2474863
O           2.3966843    -2.1051657    -1.2284741
22
142_C11H8N2O_6-7-17-16 (-60,) energy =    -608.7005679
C           0.8504954     0.6530449     0.6483324
H           1.7118659     1.2916018     0.8083357
C          -0.4062987     1.0629486     1.0918290
H          -0.5147193     2.0150943     1.6038081
C          -1.5228061     0.2532054     0.8763580
H          -2.5014434     0.5760002     1.2218423
C           0.9982964    -0.5751578    -0.0138168
C           2.3161818    -1.0905715    -0.4811928
C          -1.3832106    -0.9725030     0.2167578
H          -2.2519035    -1.6035030     0.0499585
C           5.8638656     1.1252427    -0.2130829
H           6.7971927     1.6772184    -0.1752654
C           4.7443779     1.6211182    -0.8754844
H           4.7658921     2.5846674    -1.3818908
C          -0.1305733    -1.3847518    -0.2237314
H           0.0044499    -2.3336828    -0.7324076
N           3.5853472     0.9515839    -0.9212244
C           3.5710457    -0.2427580    -0.3143389
N           4.5821006    -0.8171929     0.3501544
C           5.7184196    -0.1163767     0.4056996
H           6.5385773    -0.5694441     0.9604300
O           2.4416771    -2.1917997    -0.9919907
22
142_C11H8N2O_6-7-17-16 (-45,) energy =    -608.7008347
C           0.8358113     0.6640590     0.6930984
H           1.6918726     1.2949237     0.8994625
C          -0.4412931     1.0922894     1.0535645
H          -0.5683951     2.0513474     1.5481619
C          -1.5529052     0.2944109     0.7777443
H          -2.5472378     0.6337458     1.0561677
C           1.0110481    -0.5746655     0.0566061
C           2.3463171    -1.1305610    -0.3134829
C          -1.3868738    -0.9415219     0.1445958
H          -2.2505955    -1.5651068    -0.0693878
C           5.8748249     1.1389989    -0.2716051
H           6.8000188     1.7054313    -0.2923429
C           4.6797345     1.6659970    -0.7518770
H           4.6303492     2.6708455    -1.1679713
C          -0.1136245    -1.3748400    -0.2080154
H           0.0404268    -2.3346927    -0.6898343
N           3.5316756     0.9772017    -0.7228414
C           3.5999167    -0.2677279    -0.2315692
N           4.6905314    -0.8730524     0.2592379
C           5.8160457    -0.1552480     0.2467337
H           6.7003183    -0.6360369     0.6623181
O           2.4777344    -2.2808211    -0.7001841
22
142_C11H8N2O_6-7-17-16 (-30,) energy =    -608.7004214
C           0.8144584     0.6799464     0.7410187
H           1.6589975     1.3075057     0.9955485
C          -0.4804394     1.1183670     1.0161174
H          -0.6312317     2.0828497     1.4933308
C          -1.5783863     0.3256916     0.6782235
H          -2.5862543     0.6745915     0.8877690
C           1.0231825    -0.5674762     0.1310478
C           2.3719851    -1.1537033    -0.1415127
C          -1.3799447    -0.9185688     0.0721204
H          -2.2320514    -1.5397362    -0.1901219
C           5.8837278     1.1450399    -0.3420898
H           6.8004105     1.7199900    -0.4219312
C           4.6414198     1.6987601    -0.6348383
H           4.5432462     2.7347977    -0.9547141
C          -0.0892563    -1.3646900    -0.1901457
H           0.0868947    -2.3339484    -0.6445976
N           3.5053897     0.9976688    -0.5340859
C           3.6255094    -0.2835059    -0.1598112
N           4.7671020    -0.9131342     0.1554779
C           5.8838041    -0.1884565     0.0702964
H           6.8099573    -0.6938540     0.3401825
O           2.5039184    -2.3406901    -0.3932415
22
142_C11H8N2O_6-7-17-16 (-15,) energy =    -608.6995405
C           0.7803772     0.7110243     0.7590669
H           1.6070758     1.3505771     1.0378401
C          -0.5297661     1.1473497     0.9554230
H          -0.7102269     2.1231574     1.3982447
C          -1.6051738     0.3394078     0.5839169
H          -2.6241518     0.6881245     0.7307924
C           1.0281375    -0.5523472     0.1970970
C           2.3883716    -1.1525781     0.0098275
C          -1.3687334    -0.9202497     0.0257719
H          -2.2027336    -1.5542862    -0.2626331
C           5.8960100     1.1386711    -0.4002919
H           6.8082143     1.7123426    -0.5268601
C           4.6388927     1.7271499    -0.4904456
H           4.5231981     2.7911889    -0.6898412
C          -0.0638769    -1.3660020    -0.1543862
H           0.1382203    -2.3486249    -0.5672811
N           3.5099472     1.0254884    -0.3348816
C           3.6442153    -0.2871937    -0.1017626
N           4.8045824    -0.9499207     0.0186605
C           5.9172248    -0.2303421    -0.1281940
H           6.8584463    -0.7683877    -0.0241223
O           2.5198385    -2.3595245    -0.1130466
22
142_C11H8N2O_6-7-17-16 (0,) energy =    -608.6986643
C           0.6457307     0.8702174     0.0419041
H           1.4002375     1.6147063    -0.1696127
C          -0.6556134     1.2658775     0.3525373
H          -0.9036797     2.3238499     0.3664509
C          -1.6337463     0.3153586     0.6459267
H          -2.6434439     0.6308724     0.8959777
C           0.9808383    -0.4942625     0.0083455
C           2.3198520    -1.0568091    -0.3720497
C          -1.3112474    -1.0443561     0.6139063
H          -2.0681510    -1.7908528     0.8389727
C           5.9583765     1.0420343    -0.0022828
H           6.9046911     1.5631575     0.0982103
C           4.7499593     1.6381012     0.3421511
H           4.7080300     2.6568941     0.7236880
C          -0.0202401    -1.4437642     0.2870652
H           0.2407042    -2.4955095     0.2389737
N           3.5808234     0.9983086     0.2258416
C           3.6202866    -0.2560412    -0.2432062
N           4.7274353    -0.9172158    -0.6140538
C           5.8824326    -0.2639368    -0.4890103
H           6.7786976    -0.8047084    -0.7900055
O           2.4073775    -2.2129094    -0.7520342
22
142_C11H8N2O_6-7-17-16 (15,) energy =    -608.6995408
C           0.6737198     0.8392435    -0.0318772
H           1.4382578     1.5619968    -0.2834408
C          -0.6284782     1.2686650     0.2235615
H          -0.8672209     2.3266622     0.1565625
C          -1.6203208     0.3487221     0.5661406
H          -2.6314407     0.6897039     0.7731742
C           0.9947738    -0.5263331     0.0410222
C           2.3371775    -1.1074802    -0.2843860
C          -1.3110963    -1.0126097     0.6390432
H          -2.0801362    -1.7337176     0.9023564
C           5.9318727     1.0654145    -0.0056652
H           6.8705684     1.6029505     0.0789322
C           4.7523267     1.5535045     0.5469086
H           4.7269144     2.4996831     1.0848810
C          -0.0180854    -1.4460872     0.3669895
H           0.2351958    -2.5004411     0.3992137
N           3.5913736     0.8954679     0.4461563
C           3.6179106    -0.2757255    -0.2043391
N           4.6932070    -0.8281735    -0.7862785
C           5.8369711    -0.1507853    -0.6842191
H           6.7076148    -0.5970251    -1.1628120
O           2.4458137    -2.2881643    -0.5728824
22
142_C11H8N2O_6-7-17-16 (30,) energy =    -608.7004215
C           0.7087093     0.8028889    -0.0285953
H           1.4973224     1.5058519    -0.2647910
C          -0.5960224     1.2617330     0.1499060
H          -0.8129441     2.3208211     0.0404887
C          -1.6186959     0.3677089     0.4705999
H          -2.6329053     0.7305453     0.6161106
C           1.0008989    -0.5642041     0.1031390
C           2.3514597    -1.1611278    -0.1355086
C          -1.3372223    -0.9955174     0.6020677
H          -2.1312410    -1.6949408     0.8491362
C           5.9060330     1.0782684    -0.0528683
H           6.8391364     1.6305654    -0.0136941
C           4.7872392     1.4737491     0.6734555
H           4.8069904     2.3571189     1.3095378
C          -0.0398640    -1.4578850     0.4103552
H           0.1962736    -2.5136639     0.4914944
N           3.6308730     0.8007923     0.6266957
C           3.6101279    -0.2981949    -0.1399145
N           4.6227527    -0.7622682    -0.8871210
C           5.7577116    -0.0627235    -0.8430722
H           6.5762367    -0.4297388    -1.4606043
O           2.4893387    -2.3629359    -0.2978333
22
142_C11H8N2O_6-7-17-16 (45,) energy =    -608.7008350
C           0.7432013     0.7781927     0.0114671
H           1.5549468     1.4692104    -0.1808479
C          -0.5639603     1.2551139     0.1030795
H          -0.7610068     2.3153881    -0.0293717
C          -1.6152822     0.3756338     0.3668490
H          -2.6324530     0.7512736     0.4420245
C           1.0082647    -0.5901212     0.1779042
C           2.3686145    -1.1902687     0.0424143
C          -1.3596542    -0.9892325     0.5330144
H          -2.1771564    -1.6754477     0.7365708
C           5.8845563     1.0938462    -0.1089748
H           6.8123182     1.6560896    -0.1282319
C           4.8535393     1.4083553     0.7711993
H           4.9415458     2.2336809     1.4757615
C          -0.0583491    -1.4688208     0.4335355
H           0.1620212    -2.5250411     0.5477305
N           3.7018348     0.7254877     0.7964690
C           3.6047967    -0.3043168    -0.0554948
N           4.5287790    -0.6933570    -0.9452806
C           5.6560290     0.0213024    -0.9719625
H           6.4016101    -0.2791466    -1.7065946
O           2.5371767    -2.3989006     0.0159341
22
142_C11H8N2O_6-7-17-16 (60,) energy =    -608.7005680
C           0.7672067     0.7540542     0.0457945
H           1.5949557     1.4381806    -0.1029453
C          -0.5397255     1.2400416     0.0504790
H          -0.7227019     2.2997218    -0.1045794
C          -1.6100577     0.3678590     0.2563325
H          -2.6277495     0.7494198     0.2610036
C           1.0115232    -0.6131174     0.2455599
C           2.3790232    -1.2047590     0.2162050
C          -1.3739908    -0.9963589     0.4564185
H          -2.2073113    -1.6752305     0.6154771
C           5.8601646     1.0986465    -0.1643248
H           6.7821836     1.6650010    -0.2439181
C           4.9426855     1.3296237     0.8568302
H           5.1189158     2.0900427     1.6158024
C          -0.0719612    -1.4840027     0.4492161
H           0.1363731    -2.5387511     0.5960838
N           3.7980800     0.6417751     0.9592667
C           3.5964991    -0.3068750     0.0349181
N           4.4048734    -0.6154476    -0.9873846
C           5.5264013     0.1044464    -1.0840203
H           6.1790663    -0.1288060    -1.9238277
O           2.5723892    -2.4052174     0.3203444
22
142_C11H8N2O_6-7-17-16 (75,) energy =    -608.6998663
C           0.7815622     0.7218843     0.0303864
H           1.6198126     1.3963980    -0.1107752
C          -0.5217604     1.2122932    -0.0399791
H          -0.6937703     2.2656678    -0.2427750
C          -1.6030534     0.3502258     0.1516451
H          -2.6183989     0.7339477     0.0962760
C           1.0096952    -0.6367267     0.2933544
C           2.3793154    -1.2146326     0.3595547
C          -1.3822384    -1.0060565     0.4149833
H          -2.2251610    -1.6753659     0.5634733
C           5.8306168     1.0973004    -0.1858950
H           6.7455660     1.6665722    -0.3123315
C           5.0483530     1.2107972     0.9607311
H           5.3282724     1.8791463     1.7733609
C          -0.0834148    -1.4973035     0.4855241
H           0.1147581    -2.5452733     0.6859971
N           3.9151884     0.5165882     1.1259842
C           3.5862272    -0.3127211     0.1275923
N           4.2532165    -0.5006352    -1.0174929
C           5.3711950     0.2181958    -1.1657217
H           5.9139603     0.0799841    -2.0994639
O           2.5860816    -2.3973526     0.5757053
22
142_C11H8N2O_6-7-17-16 (90,) energy =    -608.6994415
C           0.7903781     0.6806100    -0.0456151
H           1.6348544     1.3377229    -0.2297565
C          -0.5090636     1.1701108    -0.1715943
H          -0.6730338     2.2062732    -0.4539321
C          -1.5969907     0.3278090     0.0655472
H          -2.6096348     0.7100600    -0.0326925
C           1.0074704    -0.6559239     0.3184123
C           2.3753901    -1.2213538     0.4619415
C          -1.3869223    -1.0068950     0.4293119
H          -2.2354104    -1.6601770     0.6132350
C           5.8080689     1.0944236    -0.1810461
H           6.7166859     1.6659097    -0.3391184
C           5.1789815     1.0454337     1.0612992
H           5.5766821     1.5861176     1.9186090
C          -0.0918079    -1.4969215     0.5551861
H           0.0985674    -2.5279449     0.8354285
N           4.0593360     0.3422073     1.2703789
C           3.5809923    -0.3213769     0.2111618
N           4.0848042    -0.3351396    -1.0284362
C           5.2028278     0.3776409    -1.2114803
H           5.6200270     0.3719848    -2.2171637
O           2.5826042    -2.3827895     0.7717505
22
142_C11H8N2O_6-7-17-16 (105,) energy =    -608.6997167
C           0.7847681     0.6544060    -0.1194047
H           1.6283608     1.3002068    -0.3411824
C          -0.5149126     1.1281898    -0.2939249
H          -0.6786511     2.1431671    -0.6450614
C          -1.6030603     0.2979321    -0.0186672
H          -2.6156725     0.6683579    -0.1551428
C           1.0023382    -0.6549831     0.3331804
C           2.3683062    -1.2026827     0.5530774
C          -1.3927469    -1.0097603     0.4322429
H          -2.2409244    -1.6542959     0.6460508
C           5.8011581     1.0832785    -0.1900376
H           6.7079625     1.6483409    -0.3786995
C           5.3228171     0.8732734     1.1025168
H           5.8406715     1.2800127     1.9696750
C          -0.0975047    -1.4839380     0.6076374
H           0.0927207    -2.4930613     0.9586310
N           4.2127222     0.1694494     1.3509341
C           3.5791299    -0.3184829     0.2777121
N           3.9232153    -0.1562437    -1.0057515
C           5.0464711     0.5388255    -1.2263270
H           5.3398180     0.6653559    -2.2671698
O           2.5670164    -2.3340827     0.9639511
22
142_C11H8N2O_6-7-17-16 (120,) energy =    -608.7004060
C           0.7597381     0.6497196    -0.1641030
H           1.5953454     1.2985707    -0.4018158
C          -0.5439896     1.0886864    -0.3917470
H          -0.7167545     2.0817949    -0.7970836
C          -1.6241823     0.2533569    -0.1015795
H          -2.6394430     0.5974986    -0.2807510
C           0.9906018    -0.6316331     0.3586081
C           2.3559834    -1.1484311     0.6563108
C          -1.4013349    -1.0256426     0.4194623
H          -2.2424440    -1.6751191     0.6459511
C           5.8232509     1.0457770    -0.1986048
H           6.7392686     1.5838282    -0.4190549
C           5.4714823     0.6976667     1.1053683
H           6.1022041     0.9670227     1.9511001
C          -0.1024029    -1.4649013     0.6496252
H           0.0962580    -2.4504221     1.0579966
N           4.3559086     0.0190610     1.3905461
C           3.5771960    -0.2919330     0.3465529
N           3.7926133     0.0191274    -0.9383747
C           4.9301729     0.6756486    -1.2005604
H           5.1198560     0.9153042    -2.2455159
O           2.5439041    -2.2421990     1.1639477
22
142_C11H8N2O_6-7-17-16 (135,) energy =    -608.7008272
C           0.7228946     0.6802890    -0.1452246
H           1.5435025     1.3564760    -0.3531643
C          -0.5837948     1.0670935    -0.4406684
H          -0.7719950     2.0481645    -0.8679945
C          -1.6463005     0.1968030    -0.1914337
H          -2.6632520     0.5001801    -0.4262431
C           0.9758739    -0.5841463     0.4089500
C           2.3380305    -1.0527224     0.7986122
C          -1.4024810    -1.0646558     0.3612197
H          -2.2287894    -1.7424598     0.5572488
C           5.8505584     0.9981788    -0.2242239
H           6.7779716     1.4940979    -0.4910397
C           5.6032255     0.5495362     1.0736189
H           6.3326055     0.6955836     1.8688849
C          -0.1012361    -1.4501812     0.6634451
H           0.1112494    -2.4197667     1.1016317
N           4.4761783    -0.0816345     1.4118902
C           3.5727498    -0.2374923     0.4344286
N           3.6873587     0.1797857    -0.8337982
C           4.8388690     0.7831133    -1.1554942
H           4.9425479     1.1059883    -2.1900537
O           2.5103623    -2.0936072     1.4123959
22
142_C11H8N2O_6-7-17-16 (150,) energy =    -608.7005866
C           0.6852310     0.7290035    -0.1126017
H           1.4820860     1.4427554    -0.2797930
C          -0.6207923     1.0522752    -0.4790215
H          -0.8310479     2.0225114    -0.9207012
C          -1.6536142     0.1340648    -0.2831990
H          -2.6691279     0.3874874    -0.5763489
C           0.9682290    -0.5192856     0.4644647
C           2.3226863    -0.9274474     0.9471808
C          -1.3809765    -1.1108254     0.2921964
H          -2.1832567    -1.8268551     0.4481837
C           5.8776476     0.9475580    -0.2693968
H           6.8134440     1.3944003    -0.5885670
C           5.7168196     0.4077894     1.0076744
H           6.5279541     0.4293715     1.7340133
C          -0.0817091    -1.4308378     0.6705455
H           0.1490895    -2.3850194     1.1324490
N           4.5792675    -0.1636785     1.4068313
C           3.5749031    -0.1687785     0.5182583
N           3.6093871     0.3412910    -0.7206344
C           4.7691580     0.8866071    -1.1080362
H           4.8007873     1.2866669    -2.1200982
O           2.4713914    -1.8985042     1.6714598
22
142_C11H8N2O_6-7-17-16 (165,) energy =    -608.6997280
C           0.6471493     0.7690214    -0.1133201
H           1.4175730     1.5138630    -0.2630221
C          -0.6555126     1.0248141    -0.5409850
H          -0.8889362     1.9759772    -1.0117396
C          -1.6548081     0.0658001    -0.3696691
H          -2.6665796     0.2661980    -0.7126492
C           0.9608650    -0.4522071     0.5053426
C           2.3047756    -0.7992600     1.0681790
C          -1.3525626    -1.1519138     0.2469336
H          -2.1276263    -1.9008226     0.3853511
C           5.9014161     0.8910927    -0.3116826
H           6.8426798     1.2926743    -0.6722399
C           5.8016704     0.2343401     0.9161249
H           6.6714547     0.1111722     1.5599456
C          -0.0586634    -1.4026834     0.6905487
H           0.1902008    -2.3336165     1.1889001
N           4.6553897    -0.2776485     1.3648777
C           3.5801393    -0.1126902     0.5794969
N           3.5603170     0.5118557    -0.6059619
C           4.7246212     1.0051408    -1.0444861
H           4.7045377     1.5045182    -2.0117238
O           2.4204523    -1.6854319     1.8989480
22
142_C11H8N2O_6-7-17-16 (180,) energy =    -608.6987337
C           0.7066996     0.3004132    -0.7456865
H           1.5141562     0.7257595    -1.3250501
C          -0.6162269     0.6054197    -1.0668116
H          -0.8248745     1.2605486    -1.9084023
C          -1.6666025     0.0780644    -0.3150300
H          -2.6947706     0.3271160    -0.5648229
C           0.9934273    -0.5541272     0.3325086
C           2.3630820    -1.0140036     0.7389272
C          -1.3921794    -0.7743139     0.7582773
H          -2.2051303    -1.1910079     1.3467342
C           5.8914486     1.1763498     0.0153495
H           6.8065497     1.7367441    -0.1450949
C           5.8886870    -0.0680966     0.6474957
H           6.8140493    -0.5219853     0.9996413
C          -0.0758476    -1.0956876     1.0701224
H           0.1529340    -1.7713597     1.8872918
N           4.7714399    -0.7640445     0.8570082
C           3.6289679    -0.2106808     0.4223324
N           3.5206033     0.9726817    -0.1966344
C           4.6530075     1.6560534    -0.3975543
H           4.5556410     2.6157443    -0.9023225
O           2.4930018    -2.0336659     1.3961649
