22
142_C11H8N2O_0-6-7-17 (-165,) energy =    -608.7007204
C           0.0841250    -0.0439115     1.8928609
H           0.4284741    -0.0383714     2.9218437
C          -1.2660220     0.0826384     1.5841797
H          -1.9959548     0.2005594     2.3803782
C          -1.6824439     0.0540458     0.2495232
H          -2.7376610     0.1495489     0.0071380
C           1.0378160    -0.1866514     0.8713171
C           2.4632392    -0.3540170     1.2813266
C          -0.7430630    -0.0971089    -0.7720576
H          -1.0654777    -0.1230922    -1.8093200
C           5.6685338     0.2467834    -1.3576770
H           6.5173717     0.4190934    -2.0111784
C           4.5404232     1.0611603    -1.3880980
H           4.4694087     1.9051951    -2.0721124
C           0.6124190    -0.2102969    -0.4657141
H           1.3369853    -0.3148782    -1.2647776
N           3.4849813     0.8506813    -0.5912683
C           3.5848624    -0.1747241     0.2654592
N           4.6172031    -1.0223960     0.3790434
C           5.6446543    -0.8097486    -0.4461956
H           6.4775409    -1.5072363    -0.3710012
O           2.7745028    -0.6061621     2.4340641
22
142_C11H8N2O_0-6-7-17 (-150,) energy =    -608.6997552
C           0.1283216     0.0186326     1.8668267
H           0.4936590     0.0729147     2.8873699
C          -1.2084149     0.2656681     1.5683441
H          -1.9009406     0.5331570     2.3617572
C          -1.6586297     0.1657748     0.2487994
H          -2.7034488     0.3532538     0.0153264
C           1.0332684    -0.3141133     0.8469075
C           2.4490188    -0.5848950     1.2376903
C          -0.7660587    -0.1722563    -0.7706745
H          -1.1157163    -0.2531860    -1.7962274
C           5.6520311     0.3570448    -1.3045070
H           6.4962177     0.6174002    -1.9344760
C           4.4604799     1.0753046    -1.3399953
H           4.3321059     1.9284671    -2.0040768
C           0.5778692    -0.3973167    -0.4770402
H           1.2704804    -0.6435533    -1.2745862
N           3.4115225     0.7567429    -0.5716623
C           3.5781760    -0.2804275     0.2600776
N           4.6752291    -1.0431489     0.3735568
C           5.6986599    -0.7220681    -0.4203483
H           6.5859260    -1.3487920    -0.3434373
O           2.7389062    -0.9810472     2.3541506
22
142_C11H8N2O_0-6-7-17 (-135,) energy =    -608.6977582
C           0.2095622     0.0730933     1.8122493
H           0.6154945     0.1645535     2.8149845
C          -1.1080122     0.4336468     1.5393012
H          -1.7365755     0.8290661     2.3325497
C          -1.6201562     0.2822942     0.2483297
H          -2.6502553     0.5562848     0.0360670
C           1.0316646    -0.4259672     0.7919608
C           2.4377017    -0.7970821     1.1440502
C          -0.8069314    -0.2168081    -0.7719106
H          -1.2039171    -0.3355937    -1.7763936
C           5.6388626     0.4828392    -1.2521966
H           6.4778462     0.8274927    -1.8477104
C           4.3875119     1.0874691    -1.3274498
H           4.2043008     1.9317229    -1.9900539
C           0.5200634    -0.5505016    -0.5070676
H           1.1566244    -0.9161810    -1.3066392
N           3.3464938     0.6655453    -0.5997827
C           3.5763631    -0.3631461     0.2272828
N           4.7347109    -1.0230748     0.3739751
C           5.7534403    -0.5966434    -0.3743208
H           6.6927775    -1.1371141    -0.2667474
O           2.7032753    -1.3487408     2.1975191
22
142_C11H8N2O_0-6-7-17 (-120,) energy =    -608.6950611
C           0.2976422     0.1129333     1.7506050
H           0.7592029     0.2395281     2.7255712
C          -0.9992170     0.5678462     1.5161150
H          -1.5480076     1.0690611     2.3088489
C          -1.5921868     0.3742277     0.2669453
H          -2.6061251     0.7213977     0.0866761
C           1.0147616    -0.5267686     0.7315330
C           2.4091404    -0.9932785     1.0331599
C          -0.8796474    -0.2616562    -0.7526331
H          -1.3386507    -0.4119304    -1.7260673
C           5.6268689     0.6010840    -1.1445333
H           6.4653396     1.0222118    -1.6894752
C           4.3311054     1.0846278    -1.3017174
H           4.1106989     1.9055415    -1.9820555
C           0.4273446    -0.6913373    -0.5292607
H           0.9891928    -1.1616804    -1.3309671
N           3.2926098     0.5706539    -0.6326963
C           3.5651533    -0.4346506     0.2097905
N           4.7686871    -0.9835125     0.4309751
C           5.7881383    -0.4597832    -0.2512084
H           6.7667546    -0.9050103    -0.0775591
O           2.6410826    -1.7151013     1.9848466
22
142_C11H8N2O_0-6-7-17 (-105,) energy =    -608.6925350
C           0.3944091     0.2083797     1.6512608
H           0.9280351     0.4171924     2.5744685
C          -0.8917384     0.7113342     1.4539448
H          -1.3547380     1.3237195     2.2230784
C          -1.5827550     0.4248260     0.2754206
H          -2.5869651     0.8119821     0.1250763
C           0.9989201    -0.5794017     0.6653269
C           2.3812419    -1.1251229     0.9129213
C          -0.9800636    -0.3586346    -0.7110826
H          -1.5138989    -0.5834783    -1.6305685
C           5.6179223     0.6917629    -1.0481353
H           6.4584615     1.1645738    -1.5454367
C           4.3132853     1.1473802    -1.2175884
H           4.0880764     1.9975176    -1.8593432
C           0.3125998    -0.8471376    -0.5243600
H           0.7860870    -1.4416765    -1.3010980
N           3.2726242     0.5701219    -0.6065357
C           3.5513158    -0.4744535     0.1846248
N           4.7635621    -0.9990670     0.4149777
C           5.7862935    -0.4085525    -0.2052485
H           6.7732504    -0.8308257    -0.0219093
O           2.5798584    -2.0070749     1.7245041
22
142_C11H8N2O_0-6-7-17 (-90,) energy =    -608.6916458
C           0.5057698     0.3291215     1.5038521
H           1.1285167     0.6488942     2.3353128
C          -0.7886808     0.8315284     1.3686930
H          -1.1692731     1.5425257     2.0971775
C          -1.5929048     0.4205800     0.3042362
H          -2.6009868     0.8126406     0.1997484
C           1.0031527    -0.5884679     0.5725352
C           2.3692461    -1.2015007     0.7658784
C          -1.0995680    -0.4983731    -0.6236663
H          -1.7227886    -0.8255043    -1.4517008
C           5.6652143     0.7738342    -0.9187664
H           6.5189266     1.2818653    -1.3551513
C           4.3666462     1.2495523    -1.0807295
H           4.1600658     2.1519923    -1.6536185
C           0.1934145    -1.0046393    -0.4895435
H           0.5726866    -1.7255260    -1.2090260
N           3.3097792     0.6289940    -0.5448493
C           3.5657839    -0.4824453     0.1580667
N           4.7704945    -1.0282878     0.3777341
C           5.8103017    -0.3917651    -0.1638267
H           6.7918336    -0.8294193     0.0122932
O           2.5176238    -2.2407548     1.3755049
22
142_C11H8N2O_0-6-7-17 (-75,) energy =    -608.6931098
C           0.5930573     0.4556253     1.3055892
H           1.3021673     0.8907907     2.0045627
C          -0.7127765     0.9413445     1.2460554
H          -1.0194038     1.7473725     1.9073122
C          -1.6234668     0.3937002     0.3403350
H          -2.6387002     0.7780127     0.2897717
C           0.9958008    -0.5858806     0.4614189
C           2.3474516    -1.2340540     0.6091130
C          -1.2291917    -0.6539195    -0.4941866
H          -1.9372233    -1.0900898    -1.1937437
C           5.7178893     0.8389277    -0.7888366
H           6.5899717     1.3672060    -1.1599884
C           4.4365347     1.3735564    -0.8920151
H           4.2626626     2.3464220    -1.3487384
C           0.0695116    -1.1563586    -0.4199863
H           0.3698708    -1.9923107    -1.0455496
N           3.3569024     0.7265801    -0.4388325
C           3.5720053    -0.4713375     0.1216215
N           4.7581817    -1.0760200     0.2799523
C           5.8207166    -0.4130321    -0.1792204
H           6.7868350    -0.8997256    -0.0537565
O           2.4572694    -2.3702128     1.0255065
22
142_C11H8N2O_0-6-7-17 (-60,) energy =    -608.6958519
C           0.6752859     0.4997708     1.1348530
H           1.4556276     0.9870865     1.7118729
C          -0.6276154     0.9947185     1.1685225
H          -0.8607222     1.8599667     1.7831824
C          -1.6295881     0.3812865     0.4136054
H          -2.6424044     0.7750009     0.4319480
C           0.9838565    -0.6202029     0.3513097
C           2.3260372    -1.2879204     0.4176715
C          -1.3307346    -0.7440376    -0.3581051
H          -2.1104227    -1.2297499    -0.9385897
C           5.7575542     0.8853761    -0.6436972
H           6.6465101     1.4347637    -0.9357119
C           4.4799649     1.4100264    -0.8171988
H           4.3256126     2.3961162    -1.2521027
C          -0.0356805    -1.2580701    -0.3685558
H           0.1979534    -2.1556031    -0.9334451
N           3.3794862     0.7379441    -0.4601406
C           3.5691205    -0.4786459     0.0685118
N           4.7496810    -1.0748231     0.2902582
C           5.8332663    -0.3841935    -0.0675041
H           6.7944831    -0.8628752     0.1140753
O           2.4237574    -2.4795336     0.6442390
22
142_C11H8N2O_0-6-7-17 (-45,) energy =    -608.6983858
C           0.7491584     0.5182496     0.9820591
H           1.5850180     1.0333071     1.4445847
C          -0.5424249     1.0233391     1.1234849
H          -0.7083609     1.9255064     1.7059043
C          -1.6188276     0.3727643     0.5167512
H          -2.6235161     0.7746780     0.6183252
C           0.9719888    -0.6505600     0.2402090
C           2.3100187    -1.3169464     0.1817135
C          -1.4051123    -0.7985951    -0.2151049
H          -2.2423711    -1.3105025    -0.6816438
C           5.7766833     0.9328582    -0.5523989
H           6.6782630     1.4972863    -0.7666804
C           4.5120481     1.4196228    -0.8699971
H           4.3806093     2.3895967    -1.3466659
C          -0.1195139    -1.3199399    -0.3329117
H           0.0584657    -2.2478378    -0.8674160
N           3.3953868     0.7310870    -0.6046306
C           3.5584557    -0.4695621    -0.0325873
N           4.7234865    -1.0311248     0.3223471
C           5.8214942    -0.3186753     0.0646598
H           6.7691232    -0.7656225     0.3616789
O           2.4158318    -2.5303970     0.2148978
22
142_C11H8N2O_0-6-7-17 (-30,) energy =    -608.7000739
C           0.7770344     0.5301189     0.8457063
H           1.6430198     1.0780891     1.2003484
C          -0.5026441     1.0330908     1.0758602
H          -0.6263395     1.9674873     1.6163891
C          -1.6218987     0.3398273     0.6107906
H          -2.6181387     0.7389165     0.7826849
C           0.9461151    -0.6797490     0.1559932
C           2.2790708    -1.3274154    -0.0289396
C          -1.4615877    -0.8697174    -0.0717841
H          -2.3318030    -1.4128181    -0.4301487
C           5.7928071     0.9317555    -0.4215950
H           6.7101541     1.4963558    -0.5519832
C           4.5628969     1.4188744    -0.8541648
H           4.4767137     2.3885114    -1.3417440
C          -0.1861621    -1.3839706    -0.2833703
H          -0.0417235    -2.3339068    -0.7878520
N           3.4253122     0.7323849    -0.6903465
C           3.5361945    -0.4698726    -0.1091077
N           4.6633619    -1.0335671     0.3485643
C           5.7804922    -0.3192555     0.1973068
H           6.6960263    -0.7656032     0.5826420
O           2.3892560    -2.5330250    -0.1772699
22
142_C11H8N2O_0-6-7-17 (-15,) energy =    -608.7007910
C           0.7821589     0.5843821     0.6920837
H           1.6550204     1.1832525     0.9235881
C          -0.4889191     1.0649569     1.0046005
H          -0.5956264     2.0327713     1.4867680
C          -1.6204561     0.3075696     0.6969685
H          -2.6102021     0.6875135     0.9365707
C           0.9309937    -0.6665000     0.0734444
C           2.2575932    -1.2786093    -0.2325275
C          -1.4804968    -0.9408464     0.0824775
H          -2.3600150    -1.5328076    -0.1555995
C           5.8211703     0.9327003    -0.3177305
H           6.7546759     1.4831907    -0.3704797
C           4.6346991     1.4480459    -0.8310512
H           4.6007519     2.4267029    -1.3068645
C          -0.2132732    -1.4273936    -0.2194221
H          -0.0800225    -2.3994608    -0.6827197
N           3.4763432     0.7796052    -0.7628066
C           3.5256149    -0.4343049    -0.1975422
N           4.6064396    -1.0259702     0.3303550
C           5.7427595    -0.3274044     0.2768301
H           6.6195549    -0.7956523     0.7215947
O           2.3673962    -2.4550916    -0.5380039
22
142_C11H8N2O_0-6-7-17 (0,) energy =    -608.7007058
C           0.7497380     0.7860094     0.1382811
H           1.5711498     1.4865481     0.0511843
C          -0.5625880     1.2570930     0.1650220
H          -0.7537836     2.3236154     0.0840031
C          -1.6268062     0.3638798     0.2978745
H          -2.6482255     0.7349155     0.3184863
C           1.0073211    -0.5900140     0.2435823
C           2.3763949    -1.1833262     0.1940073
C          -1.3784790    -1.0083924     0.4050026
H          -2.2056991    -1.7053433     0.5080491
C           5.8835528     1.0895430    -0.1713639
H           6.8102447     1.6487602    -0.2468447
C           4.8954160     1.4272478     0.7483588
H           5.0175003     2.2684219     1.4286271
C          -0.0714640    -1.4813405     0.3776438
H           0.1450503    -2.5416240     0.4553295
N           3.7448898     0.7481295     0.8436240
C           3.6067897    -0.3006088     0.0210874
N           4.4873061    -0.7131264    -0.9012937
C           5.6131667    -0.0018749    -0.9975848
H           6.3230405    -0.3215150    -1.7589708
O           2.5579531    -2.3880667     0.2704158
22
142_C11H8N2O_0-6-7-17 (15,) energy =    -608.7007910
C           0.7385185     0.7737996    -0.0428485
H           1.5457123     1.4571764    -0.2785787
C          -0.5651451     1.2556570     0.0690272
H          -0.7648617     2.3117503    -0.0900771
C          -1.6096424     0.3858327     0.3869572
H          -2.6238774     0.7655538     0.4791764
C           1.0062199    -0.5893909     0.1561833
C           2.3613955    -1.1926488    -0.0103742
C          -1.3514223    -0.9742960     0.5847199
H          -2.1636199    -1.6531429     0.8299721
C           5.8796058     1.0909746    -0.0730738
H           6.8076198     1.6531449    -0.0691360
C           4.8396119     1.3839514     0.8040662
H           4.9206309     2.1914968     1.5297555
C          -0.0539194    -1.4592479     0.4620484
H           0.1675041    -2.5128967     0.5966458
N           3.6876579     0.7011218     0.8005241
C           3.5995604    -0.3070174    -0.0777947
N           4.5324856    -0.6747562    -0.9673559
C           5.6600025     0.0399272    -0.9644587
H           6.4133114    -0.2426009    -1.6983097
O           2.5234535    -2.4005179    -0.0756579
22
142_C11H8N2O_0-6-7-17 (30,) energy =    -608.7000739
C           0.6993058     0.7636739    -0.2007592
H           1.4722166     1.4316849    -0.5645489
C          -0.5945274     1.2439366    -0.0035911
H          -0.8239866     2.2830602    -0.2229982
C          -1.5918831     0.3931124     0.4770497
H          -2.5974757     0.7722132     0.6394685
C           1.0028984    -0.5785492     0.0718997
C           2.3373262    -1.1826676    -0.2192742
C          -1.2984140    -0.9472935     0.7449912
H          -2.0745910    -1.6118609     1.1145287
C           5.8745924     1.0600597     0.0299926
H           6.8039233     1.6137386     0.1141606
C           4.7741634     1.3459137     0.8327560
H           4.8066100     2.1389436     1.5780126
C          -0.0129068    -1.4335065     0.5281915
H           0.2287428    -2.4766041     0.7050970
N           3.6213932     0.6730075     0.7301999
C           3.5901973    -0.3164550    -0.1728735
N           4.5840965    -0.6742629    -0.9986204
C           5.7144387     0.0277570    -0.8957093
H           6.5188778    -0.2480778    -1.5759330
O           2.4649940    -2.3754310    -0.4398487
22
142_C11H8N2O_0-6-7-17 (45,) energy =    -608.6983859
C           0.6386935     0.7788976    -0.3321958
H           1.3546766     1.4433756    -0.8051981
C          -0.6471970     1.2343626    -0.0451839
H          -0.9315187     2.2501381    -0.3059996
C          -1.5665380     0.3878055     0.5777393
H          -2.5648306     0.7484435     0.8114017
C           1.0112891    -0.5333746    -0.0076803
C           2.3228464    -1.1182364    -0.4266907
C          -1.2051959    -0.9246853     0.8941896
H          -1.9217350    -1.5871499     1.3721047
C           5.8851854     1.0311581     0.1285056
H           6.8165199     1.5641397     0.2893115
C           4.7277566     1.3458460     0.8345084
H           4.7147788     2.1424252     1.5765616
C           0.0694295    -1.3896769     0.5818539
H           0.3537745    -2.4167461     0.7884574
N           3.5740486     0.6962653     0.6386805
C           3.5946531    -0.2945773    -0.2631555
N           4.6461422    -0.6761705    -1.0029601
C           5.7803774    -0.0026461    -0.8038707
H           6.6338032    -0.3014560    -1.4108208
O           2.4081857    -2.2699499    -0.8152810
22
142_C11H8N2O_0-6-7-17 (60,) energy =    -608.6958519
C           0.5347912     0.8036577    -0.4625681
H           1.1733116     1.4697797    -1.0352236
C          -0.7384570     1.2206320    -0.0770420
H          -1.0929281     2.2073793    -0.3624913
C          -1.5551334     0.3733397     0.6748008
H          -2.5430834     0.7039477     0.9843108
C           0.9975885    -0.4699457    -0.1058421
C           2.2853653    -1.0235269    -0.6414420
C          -1.1044778    -0.9026806     1.0210617
H          -1.7416205    -1.5681214     1.5972816
C           5.8878100     0.9532097     0.2186991
H           6.8246707     1.4475654     0.4537418
C           4.6852895     1.3434284     0.8011684
H           4.6404838     2.1640364     1.5152654
C           0.1558022    -1.3320629     0.6101827
H           0.4994581    -2.3362258     0.8399878
N           3.5265547     0.7379583     0.5166073
C           3.5827842    -0.2766735    -0.3568273
N           4.6793225    -0.7274810    -0.9834838
C           5.8219272    -0.1052669    -0.6895003
H           6.7145711    -0.4655682    -1.1988290
O           2.3189016    -2.1014139    -1.2052318
22
142_C11H8N2O_0-6-7-17 (75,) energy =    -608.6931097
C           0.4164600     0.8035467    -0.6170039
H           0.9580592     1.4491670    -1.3030216
C          -0.8392152     1.1860573    -0.1462138
H          -1.2762647     2.1247755    -0.4759989
C          -1.5329790     0.3655948     0.7454846
H          -2.5082103     0.6681677     1.1174060
C           0.9853143    -0.4062785    -0.2019117
C           2.2645573    -0.9185076    -0.8102441
C          -0.9745996    -0.8479100     1.1516781
H          -1.5151377    -1.4944907     1.8377433
C           5.8807612     0.8669281     0.3501502
H           6.8184108     1.3185712     0.6570469
C           4.6591995     1.2857066     0.8704901
H           4.5999846     2.0865939     1.6055911
C           0.2707160    -1.2428376     0.6640272
H           0.6934410    -2.2009089     0.9534420
N           3.4998183     0.7316245     0.4984916
C           3.5739620    -0.2550333    -0.4050632
N           4.6898564    -0.7309531    -0.9760277
C           5.8340771    -0.1640383    -0.5903522
H           6.7437754    -0.5470413    -1.0505242
O           2.2685353    -1.8907014    -1.5390326
22
142_C11H8N2O_0-6-7-17 (90,) energy =    -608.6916457
C           0.2862886     0.7315757    -0.8190903
H           0.7132411     1.2979445    -1.6426993
C          -0.9413895     1.1100726    -0.2751790
H          -1.4663640     1.9719939    -0.6783552
C          -1.4948581     0.3831731     0.7802873
H          -2.4510967     0.6788711     1.2034066
C           0.9679104    -0.3780588    -0.3083821
C           2.2515233    -0.8432977    -0.9528193
C          -0.8179611    -0.7270487     1.2882940
H          -1.2462717    -1.2995249     2.1067558
C           5.8573446     0.7662000     0.4651328
H           6.7912481     1.1796509     0.8315075
C           4.6313398     1.1114873     1.0277265
H           4.5651321     1.8113685     1.8590275
C           0.4084723    -1.1096018     0.7445898
H           0.9300565    -1.9786396     1.1368926
N           3.4761915     0.6065639     0.5806230
C           3.5597396    -0.2560670    -0.4410518
N           4.6807946    -0.6578372    -1.0569609
C           5.8207429    -0.1400298    -0.5964814
H           6.7348216    -0.4613502    -1.0936542
O           2.2514218    -1.6677269    -1.8439018
22
142_C11H8N2O_0-6-7-17 (105,) energy =    -608.6925350
C           0.1440506     0.6500035    -0.9666607
H           0.4627955     1.1302075    -1.8877890
C          -1.0618232     1.0124841    -0.3662089
H          -1.6771144     1.7865092    -0.8170469
C          -1.4785020     0.3798108     0.8062258
H          -2.4209133     0.6585339     1.2700197
C           0.9434287    -0.3443090    -0.3918189
C           2.2315610    -0.7291303    -1.0719282
C          -0.6807329    -0.6106026     1.3831892
H          -1.0007285    -1.1051658     2.2964243
C           5.8390284     0.6496717     0.5736800
H           6.7732265     1.0119424     0.9900919
C           4.6085172     0.9734131     1.1388470
H           4.5389208     1.6034409     2.0240152
C           0.5339804    -0.9617579     0.7952721
H           1.1613020    -1.7201864     1.2559723
N           3.4530037     0.5314228     0.6299050
C           3.5398917    -0.2418731    -0.4605995
N           4.6661718    -0.6200853    -1.0821095
C           5.8063554    -0.1687999    -0.5570448
H           6.7242978    -0.4732196    -1.0577672
O           2.2374416    -1.3446461    -2.1193320
22
142_C11H8N2O_0-6-7-17 (120,) energy =    -608.6950612
C           0.0266841     0.5805474    -1.0653815
H           0.2628092     0.9922310    -2.0423070
C          -1.1818439     0.8860770    -0.4409580
H          -1.8870941     1.5553467    -0.9262566
C          -1.4863271     0.3283560     0.8023432
H          -2.4319335     0.5598645     1.2853813
C           0.9447322    -0.2747706    -0.4428144
C           2.2335328    -0.5680764    -1.1540508
C          -0.5726161    -0.5236660     1.4274728
H          -0.8067109    -0.9576126     2.3958415
C           5.8680146     0.5366567     0.6369277
H           6.8101072     0.8362225     1.0842090
C           4.6437426     0.8915107     1.1961839
H           4.5868163     1.4835182     2.1081217
C           0.6484668    -0.8074134     0.8182335
H           1.3687315    -1.4488310     1.3176612
N           3.4782190     0.5262169     0.6499879
C           3.5482265    -0.1960610    -0.4761178
N           4.6677917    -0.6009772    -1.0936022
C           5.8177675    -0.2309383    -0.5283068
H           6.7295050    -0.5608571    -1.0242529
O           2.2426480    -0.9897160    -2.2953937
22
142_C11H8N2O_0-6-7-17 (135,) energy =    -608.6977582
C          -0.0731720     0.5543164    -1.1152971
H           0.1023638     0.9367311    -2.1160818
C          -1.2943792     0.7577775    -0.4767351
H          -2.0785437     1.3213293    -0.9749171
C          -1.5104657     0.2336887     0.8001561
H          -2.4655512     0.3854836     1.2961404
C           0.9488525    -0.1606585    -0.4748477
C           2.2387776    -0.3480935    -1.2094197
C          -0.4971121    -0.4817769     1.4424545
H          -0.6637485    -0.8904809     2.4353735
C           5.9023461     0.3943621     0.7023084
H           6.8554381     0.6066543     1.1754508
C           4.7044921     0.8895763     1.2092860
H           4.6803761     1.5103340     2.1034076
C           0.7353339    -0.6611524     0.8169093
H           1.5290106    -1.1974399     1.3275127
N           3.5244290     0.6285860     0.6343310
C           3.5559173    -0.1220654    -0.4750005
N           4.6467557    -0.6557538    -1.0442473
C           5.8096793    -0.3972170    -0.4439429
H           6.6967294    -0.8382121    -0.8963810
O           2.2598438    -0.5769781    -2.4060082
22
142_C11H8N2O_0-6-7-17 (150,) energy =    -608.6997552
C          -0.1649769     0.5126805    -1.1640457
H          -0.0333459     0.8621691    -2.1830936
C          -1.4003699     0.5991138    -0.5289741
H          -2.2482365     1.0364965    -1.0490370
C          -1.5492374     0.1198418     0.7756365
H          -2.5148628     0.1819661     1.2706251
C           0.9394048    -0.0381328    -0.4955928
C           2.2312475    -0.1180866    -1.2406629
C          -0.4570735    -0.4365698     1.4448601
H          -0.5725642    -0.8122105     2.4578384
C           5.9254798     0.2599320     0.7135535
H           6.8904065     0.3821217     1.1944719
C           4.7783036     0.8783337     1.2019372
H           4.8080785     1.5101538     2.0881019
C           0.7866229    -0.5028430     0.8188854
H           1.6356981    -0.9209326     1.3486926
N           3.5825481     0.7273277     0.6192778
C           3.5512755    -0.0335453    -0.4831651
N           4.5886379    -0.6782990    -1.0366267
C           5.7651695    -0.5331784    -0.4238449
H           6.6073461    -1.0681599    -0.8602774
O           2.2636506    -0.1790765    -2.4583187
22
142_C11H8N2O_0-6-7-17 (165,) energy =    -608.7007204
C          -0.2144457     0.4574016    -1.1962905
H          -0.1056283     0.7612794    -2.2322589
C          -1.4618575     0.4246062    -0.5822193
H          -2.3483016     0.7171201    -1.1383594
C          -1.5737238     0.0114625     0.7490706
H          -2.5484346    -0.0177424     1.2291127
C           0.9397132     0.0912113    -0.4840594
C           2.2377657     0.1163608    -1.2205195
C          -0.4335937    -0.3635669     1.4620707
H          -0.5193810    -0.6882042     2.4954106
C           5.9522180     0.1403657     0.7292061
H           6.9260098     0.1717882     1.2067232
C           4.8667490     0.8557928     1.2258862
H           4.9567885     1.4763944     2.1158639
C           0.8196713    -0.3182971     0.8527536
H           1.7016491    -0.5990601     1.4164235
N           3.6594456     0.8160563     0.6479284
C           3.5576448     0.0698215    -0.4603060
N           4.5310272    -0.6598862    -1.0235379
C           5.7173241    -0.6272708    -0.4123670
H           6.5061398    -1.2335366    -0.8551485
O           2.2844372     0.2047291    -2.4367763
22
142_C11H8N2O_0-6-7-17 (180,) energy =    -608.7007541
C          -0.2332170     0.3846183    -1.2313828
H          -0.1297107     0.6297409    -2.2832025
C          -1.4851446     0.2336577    -0.6460090
H          -2.3829747     0.3657632    -1.2435916
C          -1.5869122    -0.0920941     0.7103467
H          -2.5650323    -0.2119155     1.1689441
C           0.9360230     0.2191752    -0.4687521
C           2.2391363     0.3523445    -1.1851277
C          -0.4319118    -0.2651592     1.4746503
H          -0.5090165    -0.5192395     2.5282533
C           5.9698567     0.0481197     0.7092707
H           6.9497153    -0.0061996     1.1720086
C           4.9435095     0.8162980     1.2507073
H           5.0882503     1.3935239     2.1623634
C           0.8253219    -0.1118687     0.8910309
H           1.7168496    -0.2340528     1.4938281
N           3.7284364     0.8829150     0.6913999
C           3.5603216     0.1896484    -0.4429869
N           4.4727484    -0.5821031    -1.0496016
C           5.6666897    -0.6561344    -0.4564629
H           6.4050383    -1.2975876    -0.9351767
O           2.2935758     0.5803223    -2.3831131
