23
026_C11H11N_2-0-18-16 (-165,) energy =    -480.5060073
C           1.0829410    -0.8267519     0.3598702
H           0.8406077    -1.1439869     1.3889599
C           1.8599408     0.4741750     0.4120988
H           1.4390078     1.2994439     0.9794903
C           3.0250852     0.6639497    -0.2261563
H           3.5595054     1.6082360    -0.1867552
N           3.6299378    -0.3258498    -0.9968638
H           4.6140821    -0.2278290    -1.1968715
C           3.1114662    -1.6188850    -0.9110593
H           3.7038382    -2.3856591    -1.4005399
C           1.9577780    -1.8932363    -0.2861573
H           1.5997004    -2.9182844    -0.2801998
C          -2.7149684    -0.6506051    -1.7659383
H          -3.6606764    -0.6201623    -2.3008573
C          -2.4252357    -1.7146669    -0.9082855
H          -3.1459732    -2.5172733    -0.7718268
C          -1.2123267    -1.7470464    -0.2215682
H          -0.9991133    -2.5753243     0.4523702
C          -0.2667424    -0.7225748    -0.3732893
C          -0.5634143     0.3307151    -1.2440059
H           0.1669359     1.1225880    -1.3853173
C          -1.7797512     0.3713230    -1.9298744
H          -1.9936929     1.2026544    -2.5973931
23
026_C11H11N_2-0-18-16 (-150,) energy =    -480.5070646
C           1.0943508    -0.9102916     0.3147773
H           0.8714002    -1.3308825     1.3106840
C           1.8260392     0.4074405     0.4837527
H           1.3600198     1.1742232     1.0960261
C           2.9988461     0.6823963    -0.1079264
H           3.5001985     1.6373266     0.0172211
N           3.6510006    -0.2211957    -0.9440580
H           4.6383188    -0.0868172    -1.1029642
C           3.1540669    -1.5238357    -1.0043572
H           3.7668249    -2.2233291    -1.5645769
C           1.9937335    -1.8823814    -0.4364114
H           1.6485036    -2.9054544    -0.5524560
C          -2.7318332    -0.6332620    -1.7396244
H          -3.6855149    -0.5755137    -2.2579145
C          -2.5225748    -1.6031281    -0.7573695
H          -3.3142343    -2.3048488    -0.5061946
C          -1.2981939    -1.6693513    -0.0912495
H          -1.1441926    -2.4221344     0.6802657
C          -0.2633629    -0.7741527    -0.3918747
C          -0.4823942     0.1888191    -1.3838934
H           0.3145655     0.8855690    -1.6293087
C          -1.7071860     0.2631679    -2.0490695
H          -1.8610106     1.0221528    -2.8124223
23
026_C11H11N_2-0-18-16 (-135,) energy =    -480.5075800
C           1.1092490    -0.9990332     0.2707245
H           0.9009072    -1.5093969     1.2270022
C           1.7897262     0.3278558     0.5547443
H           1.2875371     1.0239813     1.2201618
C           2.9566309     0.6919084     0.0014145
H           3.4200378     1.6521901     0.2064785
N           3.6491139    -0.1172337    -0.8982907
H           4.6331043     0.0625297    -1.0306667
C           3.1966663    -1.4250583    -1.0767127
H           3.8372137    -2.0531667    -1.6882025
C           2.0427471    -1.8688908    -0.5572695
H           1.7320652    -2.8881978    -0.7665981
C          -2.7421501    -0.6016547    -1.7123899
H          -3.7030811    -0.5086080    -2.2118330
C          -2.5959915    -1.4631402    -0.6244893
H          -3.4438706    -2.0447424    -0.2708985
C          -1.3601976    -1.5759865     0.0159165
H          -1.2531325    -2.2458430     0.8674024
C          -0.2537447    -0.8358880    -0.4168283
C          -0.4119675     0.0229849    -1.5122612
H           0.4396201     0.6035784    -1.8569745
C          -1.6447825     0.1421005    -2.1535234
H          -1.7501369     0.8165663    -2.9998993
23
026_C11H11N_2-0-18-16 (-120,) energy =    -480.5077308
C           1.1143384    -1.0843141     0.1322088
H           0.9434043    -1.7019861     1.0326310
C           1.7395629     0.2387501     0.5444381
H           1.1438081     0.9118109     1.1536963
C           2.9821120     0.6075608     0.1995495
H           3.4107262     1.5562894     0.5079544
N           3.8346461    -0.2121498    -0.5397755
H           4.6066177     0.2254659    -1.0202916
C           3.2960785    -1.3714194    -1.0980246
H           3.9608241    -1.9108158    -1.7659047
C           2.0656518    -1.8153791    -0.8019173
H           1.7243954    -2.7464253    -1.2444157
C          -2.7976669    -0.5291911    -1.6822313
H          -3.7750787    -0.3901251    -2.1369772
C          -2.6644524    -1.2954162    -0.5240160
H          -3.5384603    -1.7570008    -0.0710956
C          -1.4063446    -1.4709236     0.0570180
H          -1.3080355    -2.0692290     0.9609486
C          -0.2658197    -0.8876929    -0.5054086
C          -0.4123895    -0.1207613    -1.6690998
H           0.4677619     0.3364814    -2.1137039
C          -1.6656515     0.0583393    -2.2534165
H          -1.7607534     0.6571017    -3.1560693
23
026_C11H11N_2-0-18-16 (-105,) energy =    -480.5076340
C           1.1374120    -1.2171129     0.1307005
H           0.9651026    -1.9321683     0.9539244
C           1.7228976     0.0621421     0.7077661
H           1.1654339     0.5653533     1.4921720
C           2.8600342     0.6171168     0.2633594
H           3.2500754     1.5451846     0.6699773
N           3.6130347     0.0644683    -0.7732911
H           4.5831767     0.3327605    -0.8438314
C           3.2537112    -1.2016975    -1.2339449
H           3.9425927    -1.6431253    -1.9477511
C           2.1275084    -1.8210090    -0.8487927
H           1.8915003    -2.7909200    -1.2766168
C          -2.7799421    -0.4663452    -1.6049137
H          -3.7592623    -0.2733649    -2.0352395
C          -2.6673425    -1.1378963    -0.3871278
H          -3.5596979    -1.4719588     0.1365934
C          -1.4064733    -1.3861010     0.1598344
H          -1.3243213    -1.9142152     1.1082314
C          -0.2421096    -0.9694355    -0.4952908
C          -0.3681185    -0.2934721    -1.7161286
H           0.5291260     0.0341093    -2.2346102
C          -1.6244317    -0.0453248    -2.2682568
H          -1.7031235     0.4779618    -3.2181633
23
026_C11H11N_2-0-18-16 (-90,) energy =    -480.5072217
C           1.1507210    -1.2878499     0.0615187
H           0.9895912    -2.0752354     0.8188177
C           1.6921422    -0.0490293     0.7595986
H           1.1140953     0.3635440     1.5810186
C           2.8135244     0.5780773     0.3764336
H           3.1717812     1.4780454     0.8667397
N           3.5914499     0.1405006    -0.6967617
H           4.5520831     0.4466996    -0.7357721
C           3.2804549    -1.0938576    -1.2644405
H           3.9942733    -1.4553753    -1.9984222
C           2.1700731    -1.7780799    -0.9484163
H           1.9738149    -2.7183927    -1.4553081
C          -2.7843878    -0.4298828    -1.5839012
H          -3.7690196    -0.2071443    -1.9868229
C          -2.6543022    -0.9561571    -0.2974956
H          -3.5381185    -1.1461042     0.3066647
C          -1.3882490    -1.2456239     0.2136094
H          -1.2932938    -1.6640024     1.2143490
C          -0.2339307    -1.0152174    -0.5453027
C          -0.3767893    -0.4807134    -1.8314637
H           0.5122606    -0.2948043    -2.4281392
C          -1.6405228    -0.1945307    -2.3495633
H          -1.7324839     0.2146929    -3.3528128
23
026_C11H11N_2-0-18-16 (-75,) energy =    -480.5063038
C           1.1635662    -1.3495231    -0.0033940
H           1.0116886    -2.2080394     0.6748223
C           1.6733349    -0.1751844     0.8193663
H           1.0928603     0.1323780     1.6837845
C           2.7680750     0.5256841     0.4917569
H           3.1027446     1.3838394     1.0662779
N           3.5502347     0.2193043    -0.6234871
H           4.4964746     0.5690818    -0.6422084
C           3.2893546    -0.9754512    -1.2910668
H           4.0225491    -1.2518598    -2.0426911
C           2.2055665    -1.7252458    -1.0373451
H           2.0536679    -2.6347392    -1.6113562
C          -2.7848419    -0.4015777    -1.5755090
H          -3.7722761    -0.1563818    -1.9580118
C          -2.6184923    -0.7632984    -0.2364988
H          -3.4775302    -0.8016948     0.4289421
C          -1.3503150    -1.0817894     0.2478846
H          -1.2306389    -1.3722743     1.2905200
C          -0.2262637    -1.0467919    -0.5893724
C          -0.4038740    -0.6715667    -1.9249939
H           0.4609464    -0.6254475    -2.5812926
C          -1.6729365    -0.3580028    -2.4170500
H          -1.7912617    -0.0754244    -3.4604008
23
026_C11H11N_2-0-18-16 (-60,) energy =    -480.5048074
C           1.1774211    -1.4030527    -0.0638055
H           1.0336473    -2.3297203     0.5205124
C           1.6749467    -0.3210261     0.8832840
H           1.1214026    -0.1398975     1.7989785
C           2.7336088     0.4533720     0.6068287
H           3.0602082     1.2507203     1.2671270
N           3.4932123     0.2984678    -0.5549394
H           4.4212437     0.6946810    -0.5599180
C           3.2808035    -0.8485705    -1.3172702
H           4.0243396    -1.0349356    -2.0861621
C           2.2333109    -1.6633763    -1.1183635
H           2.1278593    -2.5406218    -1.7498538
C          -2.7832093    -0.3819103    -1.5770148
H          -3.7724040    -0.1218102    -1.9447438
C          -2.5655889    -0.5640506    -0.2089406
H          -3.3862902    -0.4460197     0.4944952
C          -1.2956597    -0.8982377     0.2583552
H          -1.1427465    -1.0457983     1.3258073
C          -0.2184639    -1.0641889    -0.6249150
C          -0.4463757    -0.8642874    -1.9897600
H           0.3821066    -0.9595230    -2.6859112
C          -1.7184232    -0.5334372    -2.4644015
H          -1.8732883    -0.3874420    -3.5307895
23
026_C11H11N_2-0-18-16 (-45,) energy =    -480.5030585
C           1.1947617    -1.4549134    -0.1180135
H           1.0532812    -2.4433251     0.3540980
C           1.6988294    -0.4937699     0.9476058
H           1.2061311    -0.4742856     1.9138978
C           2.7072046     0.3615131     0.7249185
H           3.0403158     1.0794286     1.4679129
N           3.4137673     0.3835481    -0.4791699
H           4.3098220     0.8475403    -0.4817819
C           3.2544398    -0.7047893    -1.3358018
H           3.9998840    -0.7874514    -2.1207008
C           2.2594450    -1.5927558    -1.1888922
H           2.2079509    -2.4343984    -1.8727232
C          -2.7737978    -0.3711061    -1.5909004
H          -3.7638656    -0.1041990    -1.9512942
C          -2.4920283    -0.3533818    -0.2231817
H          -3.2637345    -0.0705020     0.4887490
C          -1.2199657    -0.6933048     0.2358197
H          -1.0215612    -0.6730141     1.3043890
C          -0.2023808    -1.0659036    -0.6547430
C          -0.4952234    -1.0664192    -2.0227386
H           0.2843717    -1.3185541    -2.7353205
C          -1.7682822    -0.7279648    -2.4883796
H          -1.9692875    -0.7367658    -3.5570461
23
026_C11H11N_2-0-18-16 (-30,) energy =    -480.5022794
C           1.2162836    -1.4935457    -0.1798744
H           1.0854668    -2.5313629     0.1720155
C           1.7218376    -0.6578196     0.9842919
H           1.2740695    -0.7903711     1.9638452
C           2.6884923     0.2610300     0.8416546
H           3.0226826     0.8906570     1.6603977
N           3.3526823     0.4574550    -0.3693707
H           4.2220065     0.9689884    -0.3418298
C           3.2315138    -0.5448145    -1.3320607
H           3.9694024    -0.5138881    -2.1276805
C           2.2826417    -1.4902823    -1.2621214
H           2.2688030    -2.2673315    -2.0195514
C          -2.7708077    -0.3778080    -1.5856426
H          -3.7664036    -0.1126033    -1.9318271
C          -2.4006579    -0.1528807    -0.2592929
H          -3.1084481     0.2920983     0.4360551
C          -1.1201288    -0.4909000     0.1814526
H          -0.8482898    -0.2957526     1.2146014
C          -0.1809029    -1.0609742    -0.6879446
C          -0.5654570    -1.2776783    -2.0174884
H           0.1446405    -1.7027903    -2.7205807
C          -1.8447050    -0.9415795    -2.4636971
H          -2.1148454    -1.1169909    -3.5023241
23
026_C11H11N_2-0-18-16 (-15,) energy =    -480.5028957
C           1.2356813    -1.5115343    -0.2495970
H           1.1356816    -2.5839368    -0.0108158
C           1.7239731    -0.7837791     0.9898150
H           1.2665127    -1.0161375     1.9467099
C           2.6832972     0.1532712     0.9509812
H           3.0047570     0.6953412     1.8349282
N           3.3500713     0.4869288    -0.2264583
H           4.2184061     0.9935588    -0.1398843
C           3.2270365    -0.3953434    -1.3008311
H           3.9487479    -0.2547845    -2.0993951
C           2.2915533    -1.3552993    -1.3348337
H           2.2690074    -2.0228077    -2.1900486
C          -2.7735583    -0.3979807    -1.5824901
H          -3.7755846    -0.1371846    -1.9131177
C          -2.3121050     0.0144373    -0.3330796
H          -2.9547181     0.6019563     0.3183661
C          -1.0229966    -0.3205794     0.0886176
H          -0.6726896     0.0231876     1.0572404
C          -0.1663939    -1.0665475    -0.7283393
C          -0.6467230    -1.4818683    -1.9790499
H          -0.0096694    -2.0714678    -2.6332695
C          -1.9322352    -1.1497506    -2.4053631
H          -2.2777087    -1.4798065    -3.3821501
23
026_C11H11N_2-0-18-16 (0,) energy =    -480.5044409
C           1.2511507    -1.5116911    -0.3235141
H           1.1986451    -2.6053157    -0.1868585
C           1.7159428    -0.8770906     0.9730099
H           1.2247383    -1.1707468     1.8962330
C           2.6881782     0.0458672     1.0323817
H           2.9949390     0.5066760     1.9663121
N           3.3772547     0.4809483    -0.0970303
H           4.2601520     0.9479058     0.0466418
C           3.2242440    -0.2628354    -1.2683075
H           3.9231997    -0.0202620    -2.0626302
C           2.2804013    -1.2049616    -1.4040242
H           2.2156738    -1.7397571    -2.3464009
C          -2.7799288    -0.4192547    -1.5842190
H          -3.7871711    -0.1603474    -1.9001146
C          -2.2355950     0.1469770    -0.4323404
H          -2.8178805     0.8517968     0.1564597
C          -0.9402397    -0.1861406    -0.0271513
H          -0.5202235     0.2714295     0.8638826
C          -0.1636896    -1.0832547    -0.7666052
C          -0.7288062    -1.6566876    -1.9157695
H          -0.1535928    -2.3758472    -2.4955822
C          -2.0189661    -1.3259509    -2.3265770
H          -2.4336074    -1.7803671    -3.2231876
23
026_C11H11N_2-0-18-16 (15,) energy =    -480.5059197
C           1.2701264    -1.5099605    -0.3893317
H           1.2641798    -2.6128050    -0.3489798
C           1.7091842    -0.9679129     0.9569363
H           1.1921588    -1.3216830     1.8444147
C           2.6857047    -0.0591597     1.1034246
H           2.9774272     0.3264343     2.0755679
N           3.3896704     0.4682441     0.0235946
H           4.2795075     0.9047808     0.2128262
C           3.2198861    -0.1439122    -1.2192936
H           3.9019568     0.1913770    -1.9943980
C           2.2735185    -1.0658074    -1.4457290
H           2.1814820    -1.4826936    -2.4441686
C          -2.7795489    -0.4297663    -1.5792551
H          -3.7904479    -0.1687296    -1.8814932
C          -2.1538619     0.2613795    -0.5417294
H          -2.6774164     1.0657436    -0.0304964
C          -0.8546868    -0.0747821    -0.1530911
H          -0.3692447     0.4714934     0.6508436
C          -0.1586865    -1.1038692    -0.7947364
C          -0.8033085    -1.8000531    -1.8274871
H          -0.2850898    -2.6188149    -2.3241964
C          -2.0974204    -1.4650495    -2.2233078
H          -2.5772729    -2.0169015    -3.0279711
23
026_C11H11N_2-0-18-16 (30,) energy =    -480.5069657
C           1.2978183    -1.5009028    -0.4598716
H           1.3364206    -2.6025536    -0.5163152
C           1.7069756    -1.0600271     0.9324259
H           1.1716894    -1.4818240     1.7783008
C           2.6744107    -0.1601365     1.1676941
H           2.9451011     0.1489406     2.1727445
N           3.3883449     0.4625527     0.1463056
H           4.2761090     0.8808760     0.3806196
C           3.2192801    -0.0211493    -1.1517425
H           3.8904915     0.4035097    -1.8918286
C           2.2814419    -0.9250144    -1.4693973
H           2.1819721    -1.2326019    -2.5061606
C          -2.7760002    -0.4393446    -1.5659942
H          -3.7922111    -0.1769395    -1.8486874
C          -2.0673655     0.3590017    -0.6665500
H          -2.5315771     1.2474892    -0.2451959
C          -0.7626217     0.0213931    -0.3024810
H          -0.2134547     0.6450807     0.3976686
C          -0.1444643    -1.1184565    -0.8288731
C          -0.8691762    -1.9173041    -1.7232969
H          -0.4078664    -2.8160826    -2.1295604
C          -2.1712194    -1.5813555    -2.0951395
H          -2.7162782    -2.2150270    -2.7905570
23
026_C11H11N_2-0-18-16 (45,) energy =    -480.5075446
C           1.1586159    -0.0645211     0.1152664
H           0.9996911     0.6747297     0.9195168
C           2.1709009     0.4863871    -0.8724191
H           1.9609702     1.4483188    -1.3309814
C           3.2872501    -0.1676029    -1.2280485
H           3.9923633     0.2392826    -1.9465442
N           3.6139617    -1.4282108    -0.7303621
H           4.5794757    -1.7173026    -0.7799639
C           2.8354587    -1.9373235     0.3098348
H           3.1970286    -2.8654454     0.7418142
C           1.7072117    -1.3447804     0.7271538
H           1.1283360    -1.8173188     1.5151992
C          -2.7679796    -0.7567406    -1.6254240
H          -3.7499067    -0.9331080    -2.0569494
C          -1.6162269    -1.1450019    -2.3142350
H          -1.7002731    -1.6255198    -3.2860337
C          -0.3562847    -0.9174085    -1.7607719
H           0.5380543    -1.2180723    -2.3000577
C          -0.2233557    -0.2973076    -0.5117081
C          -1.3842830     0.0916638     0.1668133
H          -1.2963233     0.5822430     1.1346976
C          -2.6482325    -0.1369925    -0.3809059
H          -3.5375605     0.1738803     0.1618930
23
026_C11H11N_2-0-18-16 (60,) energy =    -480.5077188
C           1.1420120    -0.1463230     0.1850629
H           0.9681100     0.5100018     1.0554032
C           2.1254777     0.5302075    -0.7548370
H           1.8765248     1.5220412    -1.1205028
C           3.2562541    -0.0511949    -1.1823251
H           3.9367478     0.4415762    -1.8700730
N           3.6299138    -1.3414297    -0.8058649
H           4.6039416    -1.5915593    -0.8895231
C           2.8811110    -1.9697490     0.1895362
H           3.2796366    -2.9196837     0.5325816
C           1.7370252    -1.4585931     0.6680206
H           1.1841211    -2.0212798     1.4143926
C          -2.7587172    -0.7140955    -1.6532347
H          -3.7331155    -0.8570217    -2.1132564
C          -1.6213356    -1.2972809    -2.2186069
H          -1.7097394    -1.8963495    -3.1217199
C          -0.3715520    -1.1137057    -1.6285982
H           0.5113285    -1.5680615    -2.0705901
C          -0.2339974    -0.3453167    -0.4645721
C          -1.3795095     0.2337281     0.0920350
H          -1.2878007     0.8338022     0.9956202
C          -2.6343336     0.0529004    -0.4947340
H          -3.5123599     0.5116684    -0.0466768
23
026_C11H11N_2-0-18-16 (75,) energy =    -480.5076153
C           1.1249519    -0.2410721     0.2382257
H           0.9335583     0.3265098     1.1656461
C           2.0780919     0.5585791    -0.6363230
H           1.7884139     1.5691035    -0.9088022
C           3.2259235     0.0616673    -1.1199857
H           3.8821216     0.6395092    -1.7636518
N           3.6505420    -1.2425813    -0.8626953
H           4.6327351    -1.4471782    -0.9709776
C           2.9321970    -1.9868783     0.0724547
H           3.3705878    -2.9461908     0.3303356
C           1.7698311    -1.5678433     0.5954805
H           1.2441615    -2.2174891     1.2891270
C          -2.7543921    -0.6721628    -1.6823635
H          -3.7230436    -0.7763588    -2.1643961
C          -1.6673649    -1.4366190    -2.1139753
H          -1.7889496    -2.1390471    -2.9350415
C          -0.4250269    -1.3033853    -1.4944415
H           0.4181965    -1.9010343    -1.8305362
C          -0.2455696    -0.4066366    -0.4329944
C          -1.3425541     0.3508642    -0.0069542
H          -1.2198536     1.0469507     0.8210121
C          -2.5881407     0.2236469    -0.6256317
H          -3.4280898     0.8205950    -0.2787740
23
026_C11H11N_2-0-18-16 (90,) energy =    -480.5071378
C           1.1118143    -0.3233110     0.2792192
H           0.8961499     0.1521811     1.2521927
C           2.0404572     0.5889279    -0.5085106
H           1.7228967     1.6137082    -0.6762408
C           3.1976058     0.1732145    -1.0430715
H           3.8357168     0.8284617    -1.6279889
N           3.6588638    -1.1377333    -0.9120461
H           4.6439509    -1.3048478    -1.0526084
C           2.9757653    -1.9830945    -0.0395869
H           3.4520194    -2.9424620     0.1386477
C           1.8039055    -1.6501841     0.5233835
H           1.3104076    -2.3714686     1.1682144
C          -2.7477886    -0.6462772    -1.7051829
H          -3.7119918    -0.7208791    -2.2013810
C          -1.7323901    -1.5581994    -1.9997673
H          -1.9044309    -2.3471821    -2.7280029
C          -0.4948179    -1.4634282    -1.3614810
H           0.2938852    -2.1745161    -1.5922504
C          -0.2506417    -0.4584596    -0.4180984
C          -1.2796786     0.4454888    -0.1245700
H          -1.1099516     1.2245872     0.6169203
C          -2.5170270     0.3587067    -0.7639052
H          -3.3026891     1.0700716    -0.5212037
23
026_C11H11N_2-0-18-16 (105,) energy =    -480.5062083
C           1.0994979    -0.3979662     0.3037317
H           0.8561719    -0.0178099     1.3117118
C           2.0103531     0.6114464    -0.3803746
H           1.6759085     1.6426783    -0.4395865
C           3.1714140     0.2733344    -0.9588332
H           3.7968341     0.9947246    -1.4755207
N           3.6572628    -1.0356570    -0.9578080
H           4.6430126    -1.1690197    -1.1268746
C           3.0080750    -1.9683722    -0.1517054
H           3.5175563    -2.9217613    -0.0498427
C           1.8330342    -1.7160861     0.4455816
H           1.3732453    -2.4971113     1.0441441
C          -2.7497715    -0.6333582    -1.7206685
H          -3.7130151    -0.6846827    -2.2216226
C          -1.8174470    -1.6588229    -1.8800922
H          -2.0526986    -2.5150639    -2.5077542
C          -0.5798690    -1.5926285    -1.2356232
H           0.1457607    -2.3906706    -1.3669896
C          -0.2528920    -0.5025377    -0.4228164
C          -1.2028048     0.5158575    -0.2607255
H          -0.9728823     1.3622841     0.3845834
C          -2.4371864     0.4580559    -0.9066100
H          -3.1586866     1.2595946    -0.7679516
23
026_C11H11N_2-0-18-16 (120,) energy =    -480.5048372
C           1.0901599    -0.4680484     0.3231376
H           0.8165512    -0.1890560     1.3562231
C           1.9923249     0.6213290    -0.2384924
H           1.6593213     1.6523381    -0.1740092
C           3.1503467     0.3561051    -0.8593086
H           3.7696858     1.1341482    -1.2946438
N           3.6448800    -0.9424337    -1.0007380
H           4.6287470    -1.0461990    -1.1994994
C           3.0289883    -1.9518000    -0.2633580
H           3.5646602    -2.8958192    -0.2376256
C           1.8583295    -1.7730307     0.3678006
H           1.4341490    -2.6034142     0.9245402
C          -2.7535352    -0.6262107    -1.7298231
H          -3.7174881    -0.6596771    -2.2308722
C          -1.9084334    -1.7349882    -1.7528995
H          -2.2112349    -2.6400625    -2.2740851
C          -0.6692199    -1.6905656    -1.1083828
H          -0.0112083    -2.5542667    -1.1423424
C          -0.2505911    -0.5391424    -0.4350119
C          -1.1158709     0.5647743    -0.4077613
H          -0.8215026     1.4640799     0.1301359
C          -2.3511419     0.5276787    -1.0523384
H          -3.0036839     1.3968587    -1.0204588
23
026_C11H11N_2-0-18-16 (135,) energy =    -480.5032465
C           1.0852189    -0.5279662     0.3545117
H           0.7850646    -0.3569783     1.4032968
C           1.9789961     0.6259396    -0.0741530
H           1.6674167     1.6415334     0.1462745
C           3.1187198     0.4386672    -0.7549584
H           3.7346494     1.2628670    -1.1009981
N           3.6037915    -0.8342762    -1.0626019
H           4.5769222    -0.9081818    -1.3193269
C           3.0371460    -1.9159945    -0.3899316
H           3.5968936    -2.8440779    -0.4531364
C           1.8887563    -1.8123268     0.2960694
H           1.5138412    -2.6872361     0.8182697
C          -2.7460939    -0.6197933    -1.7390138
H          -3.7078367    -0.6387690    -2.2450310
C          -1.9952366    -1.7869685    -1.6060659
H          -2.3692127    -2.7246222    -2.0103566
C          -0.7585331    -1.7598912    -0.9562809
H          -0.1765489    -2.6732141    -0.8756971
C          -0.2439665    -0.5689908    -0.4332024
C          -1.0142907     0.5958925    -0.5656994
H          -0.6479098     1.5343476    -0.1567149
C          -2.2483587     0.5750654    -1.2142032
H          -2.8235135     1.4931110    -1.3078657
23
026_C11H11N_2-0-18-16 (150,) energy =    -480.5023136
C           1.0892716    -0.6089759     0.3889614
H           0.7831531    -0.5563673     1.4480666
C           1.9646002     0.5966610     0.0884860
H           1.6689331     1.5711899     0.4630152
C           3.0811088     0.5062297    -0.6491484
H           3.6858893     1.3709887    -0.9038613
N           3.5594468    -0.7150956    -1.1251817
H           4.5167674    -0.7439638    -1.4427971
C           3.0456634    -1.8724079    -0.5401100
H           3.6251109    -2.7742225    -0.7117232
C           1.9266425    -1.8618140     0.1995230
H           1.6024409    -2.7881880     0.6627209
C          -2.7217670    -0.6283964    -1.7529914
H          -3.6766932    -0.6321304    -2.2720955
C          -2.0856306    -1.8287036    -1.4360039
H          -2.5425269    -2.7769007    -1.7092843
C          -0.8574707    -1.8209616    -0.7720529
H          -0.3712204    -2.7657416    -0.5481842
C          -0.2362556    -0.6188315    -0.4107812
C          -0.8866016     0.5790783    -0.7366074
H          -0.4269415     1.5291094    -0.4800198
C          -2.1141844     0.5773945    -1.4002528
H          -2.5942980     1.5219123    -1.6449219
23
026_C11H11N_2-0-18-16 (165,) energy =    -480.5027222
C           1.0740160    -0.6862648     0.4034667
H           0.7808669    -0.7619530     1.4645386
C           1.9225029     0.5601023     0.2265469
H           1.6035011     1.4824458     0.7023018
C           3.0420363     0.5760792    -0.5125341
H           3.6268143     1.4777097    -0.6661302
N           3.5464275    -0.5712268    -1.1226149
H           4.5053384    -0.5461556    -1.4351910
C           3.0478373    -1.7981753    -0.6828624
H           3.6338014    -2.6655190    -0.9704864
C           1.9326044    -1.8936429     0.0554969
H           1.6182502    -2.8769155     0.3897026
C          -2.7033573    -0.6345765    -1.7965149
H          -3.6457296    -0.6256087    -2.3380211
C          -2.1998152    -1.8280911    -1.2755281
H          -2.7492393    -2.7566676    -1.4108343
C          -0.9883964    -1.8370164    -0.5844535
H          -0.6133238    -2.7775925    -0.1901191
C          -0.2539929    -0.6580405    -0.3909091
C          -0.7659032     0.5287062    -0.9275145
H          -0.2038124     1.4513225    -0.8189555
C          -1.9789842     0.5437527    -1.6200004
H          -2.3529254     1.4798742    -2.0278753
23
026_C11H11N_2-0-18-16 (180,) energy =    -480.5043695
C           1.0755928    -0.7603485     0.3889307
H           0.8137532    -0.9650076     1.4412873
C           1.8923649     0.5159341     0.3259661
H           1.5244424     1.3907229     0.8545122
C           3.0343419     0.6243141    -0.3702235
H           3.5956729     1.5520633    -0.4235915
N           3.5857158    -0.4433422    -1.0742490
H           4.5589587    -0.3786472    -1.3326629
C           3.0692455    -1.7147716    -0.8195108
H           3.6502124    -2.5379499    -1.2234548
C           1.9362445    -1.9057358    -0.1290321
H           1.5918176    -2.9230705     0.0271839
C          -2.7069510    -0.6474879    -1.7847779
H          -3.6481764    -0.6299709    -2.3280782
C          -2.3204224    -1.7907221    -1.0808331
H          -2.9608337    -2.6694451    -1.0737393
C          -1.1122060    -1.8091294    -0.3860573
H          -0.8289516    -2.7045964     0.1634031
C          -0.2665284    -0.6896563    -0.3708257
C          -0.6589755     0.4427326    -1.0908530
H          -0.0041968     1.3088529    -1.1170867
C          -1.8707357     0.4681166    -1.7865432
H          -2.1560570     1.3618045    -2.3364614
