27
379_C13H12O2_22-0-3-10 (-165,) energy =    -653.0443013
C           1.0233443    -0.5919835     0.0761643
H           1.2775400    -0.8325446     1.1191129
H           0.6659000     0.4443066     0.0444135
O           2.2204964    -0.7182706    -0.7188587
C           5.8770227     0.8128452     0.5853023
H           6.8407342     1.1982000     0.9046740
C           4.7150121     1.1741036     1.2630065
H           4.7674634     1.8475835     2.1142827
C           3.4675152     0.6844272     0.8620781
H           2.5751361     0.9891168     1.3965307
C           3.3938458    -0.1841170    -0.2308946
C           4.5567343    -0.5468505    -0.9226141
H           4.4722782    -1.2130616    -1.7761167
C           5.7892575    -0.0489093    -0.5128973
H           6.6865285    -0.3372827    -1.0537237
C          -2.0615846    -3.3250851    -1.1775677
H          -2.8440440    -4.0238802    -1.4615590
C          -0.7503077    -3.7777825    -1.0549733
H          -0.4873018    -4.8142793    -1.2417703
C           0.2674733    -2.8899003    -0.6920618
O           1.5333340    -3.3838573    -0.5802003
H           2.1470553    -2.6269612    -0.6365619
C          -0.0311206    -1.5356611    -0.4408366
C          -1.3514587    -1.0997650    -0.5944310
H          -1.5817375    -0.0514043    -0.4159046
C          -2.3698215    -1.9808780    -0.9551673
H          -3.3889996    -1.6225290    -1.0642096
27
379_C13H12O2_22-0-3-10 (-150,) energy =    -653.0423074
C           0.9446343    -0.4108358    -0.0400878
H           1.2387396    -0.5974284     1.0022979
H           0.5025874     0.5909962    -0.0933560
O           2.1359090    -0.4549412    -0.8572816
C           5.8765273     0.5909826     0.6726689
H           6.8604825     0.8510614     1.0513754
C           4.7303216     1.0635142     1.3090188
H           4.8166708     1.7012201     2.1847193
C           3.4580292     0.7361952     0.8306552
H           2.5781749     1.1324184     1.3253577
C           3.3404444    -0.0865297    -0.2938869
C           4.4871862    -0.5562198    -0.9459489
H           4.3721243    -1.1778692    -1.8292429
C           5.7469858    -0.2169089    -0.4609654
H           6.6316119    -0.5891389    -0.9704148
C          -1.9594815    -3.4190624    -1.0896377
H          -2.6957415    -4.1846429    -1.3197871
C          -0.6106810    -3.7600978    -1.0327377
H          -0.2728857    -4.7748487    -1.2188195
C           0.3490971    -2.7859618    -0.7391022
O           1.6547552    -3.1759313    -0.6924689
H           2.1986518    -2.3729100    -0.7935512
C          -0.0448030    -1.4560516    -0.4909246
C          -1.4034890    -1.1329611    -0.5806842
H          -1.7096288    -0.1032635    -0.4070859
C          -2.3643720    -2.1001207    -0.8711136
H          -3.4137205    -1.8272094    -0.9300812
27
379_C13H12O2_22-0-3-10 (-135,) energy =    -653.0393630
C           0.8570049    -0.2193593    -0.1522643
H           1.1442984    -0.3127081     0.9030577
H           0.3346840     0.7357066    -0.2763433
O           2.0610579    -0.1971359    -0.9526108
C           5.8461664     0.3660078     0.7196219
H           6.8403648     0.5006685     1.1351114
C           4.7353714     0.9124402     1.3610450
H           4.8618876     1.4843465     2.2763884
C           3.4510950     0.7471475     0.8356427
H           2.6019361     1.2048713     1.3315445
C           3.2809764     0.0086249    -0.3400780
C           4.3935332    -0.5295778    -0.9986520
H           4.2423419    -1.0761200    -1.9253113
C           5.6681979    -0.3500014    -0.4670675
H           6.5248534    -0.7757524    -0.9823013
C          -1.8265841    -3.4929476    -0.9939004
H          -2.5077394    -4.3211727    -1.1703950
C          -0.4553321    -3.7296673    -0.9598497
H          -0.0454075    -4.7234983    -1.1109766
C           0.4369236    -2.6758185    -0.7349089
O           1.7671561    -2.9756509    -0.7083007
H           2.2568544    -2.1478729    -0.8538198
C          -0.0472787    -1.3684721    -0.5333033
C          -1.4290916    -1.1524579    -0.6012035
H          -1.8072502    -0.1410329    -0.4655975
C          -2.3228956    -2.1985956    -0.8219102
H          -3.3906063    -2.0052652    -0.8640328
27
379_C13H12O2_22-0-3-10 (-120,) energy =    -653.0367634
C           0.7299054    -0.0818098     0.0102509
H           1.0985031    -0.2241549     1.0337466
H           0.0920493     0.8073434     0.0003149
O           1.8535200     0.1679030    -0.8661820
C           5.7925307     0.1047595     0.5086677
H           6.8245650     0.0846142     0.8460385
C           4.8018956     0.6750787     1.3094962
H           5.0624852     1.1098443     2.2708070
C           3.4725774     0.7101345     0.8847284
H           2.7170155     1.1861085     1.5016509
C           3.1274124     0.1514384    -0.3540588
C           4.1199957    -0.4183171    -1.1641490
H           3.8310365    -0.8335892    -2.1248181
C           5.4453146    -0.4355968    -0.7315610
H           6.2071585    -0.8801417    -1.3661260
C          -1.5963181    -3.5283505    -1.1440111
H          -2.1869349    -4.4002927    -1.4124687
C          -0.2697343    -3.6928440    -0.7540243
H           0.1919832    -4.6744479    -0.7134034
C           0.5056297    -2.5812916    -0.4092131
O           1.7900250    -2.8327849    -0.0148117
H           2.3386301    -2.0361300    -0.0914781
C          -0.0543363    -1.2888690    -0.4382100
C          -1.3849127    -1.1498981    -0.8507793
H          -1.8165744    -0.1518324    -0.8855821
C          -2.1618366    -2.2526944    -1.2007756
H          -3.1930256    -2.1185771    -1.5134916
27
379_C13H12O2_22-0-3-10 (-105,) energy =    -653.0362742
C           0.6370912     0.0879444     0.0162908
H           0.9453262     0.0494573     1.0659312
H          -0.0575300     0.9248821    -0.0926347
O           1.7662103     0.3959747    -0.8305421
C           5.7388166    -0.1340918     0.3363410
H           6.7797971    -0.2725229     0.6126377
C           4.7939040     0.2085448     1.3004088
H           5.0965087     0.3506401     2.3344634
C           3.4497814     0.3927173     0.9561370
H           2.7443069     0.7093291     1.7172863
C           3.0450928     0.2143765    -0.3758552
C           3.9973029    -0.1290769    -1.3484802
H           3.6617182    -0.2621786    -2.3719474
C           5.3315400    -0.2947216    -0.9924190
H           6.0572644    -0.5618270    -1.7559434
C          -1.3756994    -3.5619925    -1.1050528
H          -1.8879597    -4.4821596    -1.3735576
C          -0.1710272    -3.6274162    -0.4112773
H           0.2719399    -4.5783413    -0.1323533
C           0.5054504    -2.4533092    -0.0616407
O           1.6714749    -2.6142743     0.6324723
H           2.1983804    -1.7981409     0.6412093
C          -0.0386867    -1.1963962    -0.3938980
C          -1.2471885    -1.1603457    -1.1009745
H          -1.6654524    -0.1910036    -1.3636891
C          -1.9208276    -2.3254120    -1.4597573
H          -2.8583904    -2.2704547    -2.0047662
27
379_C13H12O2_22-0-3-10 (-90,) energy =    -653.0365240
C           0.5386343     0.1920231     0.1122178
H           0.8229205     0.1616350     1.1698703
H          -0.2265114     0.9634554     0.0000737
O           1.6463147     0.6552786    -0.6930573
C           5.5921081    -0.3514495     0.2220784
H           6.6247086    -0.6088244     0.4382071
C           4.7353474     0.0406209     1.2492684
H           5.1008016     0.1025855     2.2708279
C           3.4042102     0.3772915     0.9801609
H           2.7652073     0.7330361     1.7828012
C           2.9221475     0.3032912    -0.3365076
C           3.7836372    -0.0889526    -1.3701741
H           3.3891554    -0.1380872    -2.3799579
C           5.1100405    -0.4058397    -1.0893925
H           5.7686107    -0.7095430    -1.8987426
C          -1.1542461    -3.5757032    -1.1527223
H          -1.5930867    -4.5224509    -1.4566190
C          -0.0449306    -3.5731977    -0.3132303
H           0.3975353    -4.4976870     0.0442992
C           0.5385117    -2.3640069     0.0842110
O           1.6137304    -2.4631817     0.9223373
H           2.1487626    -1.6513156     0.9071409
C          -0.0106173    -1.1383267    -0.3438277
C          -1.1214487    -1.1716432    -1.1983233
H          -1.5440468    -0.2272366    -1.5346941
C          -1.6970896    -2.3711431    -1.6081558
H          -2.5602538    -2.3677911    -2.2670454
27
379_C13H12O2_22-0-3-10 (-75,) energy =    -653.0364418
C           0.4718768     0.2861670     0.2375897
H           0.7192242     0.2333493     1.3057114
H          -0.3506244     0.9955310     0.1238768
O           1.5632916     0.8971777    -0.4894142
C           5.4259654    -0.5741235     0.0858354
H           6.4357196    -0.9499968     0.2221940
C           4.7186519    -0.0538876     1.1705577
H           5.1801371    -0.0120039     2.1535338
C           3.4199983     0.4352370     0.9999144
H           2.8871088     0.8851946     1.8332946
C           2.8208249     0.3884060    -0.2685491
C           3.5288124    -0.1316460    -1.3571080
H           3.0447258    -0.1560951    -2.3279518
C           4.8288165    -0.6028553    -1.1771328
H           5.3737763    -1.0055839    -2.0266917
C          -0.8606146    -3.5492795    -1.2419194
H          -1.2150101    -4.5125162    -1.5995323
C           0.1305214    -3.5018375    -0.2671219
H           0.5654409    -4.4076811     0.1434605
C           0.6044388    -2.2701138     0.2012561
O           1.5669161    -2.3242448     1.1718142
H           2.1087087    -1.5165591     1.1624186
C           0.0584625    -1.0672488    -0.2904837
C          -0.9294747    -1.1455881    -1.2829438
H          -1.3484335    -0.2188356    -1.6693121
C          -1.3918902    -2.3667798    -1.7648013
H          -2.1622793    -2.3978980    -2.5295729
27
379_C13H12O2_22-0-3-10 (-60,) energy =    -653.0355025
C           0.4030868     0.3567317     0.3143978
H           0.5544498     0.2864721     1.4011511
H          -0.4434038     1.0239193     0.1395574
O           1.5228497     1.0610878    -0.2748398
C           5.2766037    -0.7457256    -0.0415128
H           6.2585795    -1.2067167     0.0123918
C           4.7236183    -0.1411878     1.0887364
H           5.2776254    -0.1207165     2.0234018
C           3.4614928     0.4560265     1.0205330
H           3.0384424     0.9680974     1.8810993
C           2.7474614     0.4382345    -0.1867495
C           3.3000480    -0.1647060    -1.3202704
H           2.7300728    -0.1640742    -2.2434523
C           4.5646760    -0.7490910    -1.2437566
H           4.9924202    -1.2164365    -2.1266460
C          -0.6034879    -3.5199856    -1.3074600
H          -0.8825191    -4.4949036    -1.6986303
C           0.2687033    -3.4389743    -0.2268958
H           0.6862774    -4.3290349     0.2331667
C           0.6445690    -2.1917130     0.2867659
O           1.4947127    -2.2081254     1.3588760
H           2.0397117    -1.4024861     1.3667445
C           0.1156139    -1.0079605    -0.2658469
C          -0.7486496    -1.1198634    -1.3653528
H          -1.1542876    -0.2080167    -1.7986634
C          -1.1106946    -2.3561573    -1.8926332
H          -1.7876417    -2.4137760    -2.7398871
27
379_C13H12O2_22-0-3-10 (-45,) energy =    -653.0335341
C           0.3273338     0.3997055     0.3294630
H           0.3216344     0.3230011     1.4269679
H          -0.4935305     1.0578322     0.0378892
O           1.5159411     1.1336379    -0.0644099
C           5.1968306    -0.8294752    -0.1361507
H           6.1619977    -1.3273247    -0.1579676
C           4.7656356    -0.1875910     1.0255452
H           5.3966148    -0.1764144     1.9102274
C           3.5239015     0.4540759     1.0528288
H           3.1878152     0.9907042     1.9363857
C           2.7106958     0.4502133    -0.0894689
C           3.1442805    -0.1865823    -1.2571015
H           2.5052300    -0.1720910    -2.1334385
C           4.3858569    -0.8222839    -1.2743091
H           4.7208174    -1.3164704    -2.1823180
C          -0.4604664    -3.5071034    -1.3357109
H          -0.6903580    -4.4916277    -1.7346225
C           0.3280112    -3.3971861    -0.1946478
H           0.7282902    -4.2734331     0.3055192
C           0.6393089    -2.1374148     0.3300066
O           1.4075696    -2.1191795     1.4619591
H           1.9521929    -1.3135519     1.4815145
C           0.1302285    -0.9700734    -0.2739470
C          -0.6481844    -1.1109548    -1.4327388
H          -1.0412969    -0.2126975    -1.9043542
C          -0.9454612    -2.3602560    -1.9706370
H          -1.5573291    -2.4406041    -2.8642629
27
379_C13H12O2_22-0-3-10 (-30,) energy =    -653.0314411
C           0.2749702     0.4182839     0.3264899
H           0.1007972     0.3501341     1.4099333
H          -0.4789452     1.0887092    -0.0915282
O           1.5292750     1.1319385     0.1421212
C           5.1817704    -0.8505560    -0.2187089
H           6.1424615    -1.3489129    -0.3114349
C           4.8257449    -0.2321300     0.9801579
H           5.5095433    -0.2408636     1.8247031
C           3.5887518     0.4074417     1.0991721
H           3.3054472     0.9210094     2.0141829
C           2.7048707     0.4316686     0.0108819
C           3.0660598    -0.1780561    -1.1971237
H           2.3812065    -0.1400410    -2.0370068
C           4.3006217    -0.8179900    -1.3031841
H           4.5772122    -1.2911328    -2.2416132
C          -0.3837996    -3.5129590    -1.3299030
H          -0.5853800    -4.5051963    -1.7249082
C           0.3363476    -3.3786851    -0.1461599
H           0.7100503    -4.2438047     0.3923934
C           0.6081143    -2.1084029     0.3721452
O           1.3019993    -2.0582050     1.5514455
H           1.8766571    -1.2734649     1.5637567
C           0.1321634    -0.9544898    -0.2820651
C          -0.5765703    -1.1187177    -1.4812316
H          -0.9470821    -0.2321072    -1.9916014
C          -0.8360540    -2.3802463    -2.0118410
H          -1.3943514    -2.4800542    -2.9379845
27
379_C13H12O2_22-0-3-10 (-15,) energy =    -653.0301698
C           0.2508691     0.4422898     0.3070546
H          -0.0804782     0.4101654     1.3539631
H          -0.4102482     1.1271998    -0.2301361
O           1.5487706     1.1016163     0.3231287
C           5.1948321    -0.8310445    -0.2851409
H           6.1550899    -1.3154264    -0.4372306
C           4.8861530    -0.2543500     0.9471462
H           5.6064258    -0.2824705     1.7603731
C           3.6490005     0.3639956     1.1427669
H           3.3995554     0.8401008     2.0873065
C           2.7153533     0.4131588     0.0978030
C           3.0302096    -0.1503037    -1.1460912
H           2.3135499    -0.0925033    -1.9574107
C           4.2645051    -0.7738746    -1.3263713
H           4.5029166    -1.2121045    -2.2918882
C          -0.3558691    -3.5137698    -1.3032259
H          -0.5464437    -4.5128135    -1.6862715
C           0.3135152    -3.3595294    -0.0921234
H           0.6565361    -4.2155470     0.4803114
C           0.5692818    -2.0803225     0.4109677
O           1.2074005    -2.0047375     1.6195968
H           1.7736904    -1.2150256     1.6465290
C           0.1341224    -0.9376306    -0.2892736
C          -0.5242415    -1.1217321    -1.5133212
H          -0.8647842    -0.2435695    -2.0580183
C          -0.7706036    -2.3931169    -2.0272147
H          -1.2892413    -2.5089695    -2.9742710
27
379_C13H12O2_22-0-3-10 (0,) energy =    -653.0303119
C           0.2401978     0.4414908     0.2890309
H          -0.2239267     0.4629782     1.2835580
H          -0.3105358     1.1431461    -0.3454915
O           1.5605998     1.0206591     0.4852814
C           5.2171713    -0.7947719    -0.3739655
H           6.1810894    -1.2485846    -0.5854783
C           4.9435798    -0.2828396     0.8952591
H           5.6950080    -0.3322326     1.6787695
C           3.7025594     0.2935755     1.1682735
H           3.4783369     0.7126464     2.1454824
C           2.7269960     0.3670751     0.1652778
C           3.0050205    -0.1260021    -1.1160944
H           2.2597107    -0.0483082    -1.8990588
C           4.2448548    -0.7117626    -1.3731500
H           4.4532716    -1.0976645    -2.3675520
C          -0.3291459    -3.5324847    -1.2825403
H          -0.5056101    -4.5368114    -1.6583342
C           0.2750193    -3.3624755    -0.0397882
H           0.5786063    -4.2108544     0.5652898
C           0.5093973    -2.0754320     0.4530884
O           1.0808869    -1.9799851     1.6912993
H           1.5294634    -1.1243741     1.7846976
C           0.1277711    -0.9436241    -0.2932782
C          -0.4689983    -1.1434546    -1.5451153
H          -0.7700703    -0.2725773    -2.1237853
C          -0.6994916    -2.4226879    -2.0467688
H          -1.1684782    -2.5530040    -3.0174272
27
379_C13H12O2_22-0-3-10 (15,) energy =    -653.0324821
C           1.1119541    -1.8396850     1.6831997
H           1.0803127    -2.8788920     2.0322818
H           0.5945706    -1.2276982     2.4313284
O           2.5244223    -1.4974544     1.7404009
C           4.6925287     0.6321610    -1.1195092
H           5.2793090     1.1810660    -1.8503720
C           3.4342227     1.0977462    -0.7345282
H           3.0396727     2.0157918    -1.1619779
C           2.6730904     0.4035476     0.2071498
H           1.7041957     0.7799689     0.5136375
C           3.1709385    -0.7845069     0.7545492
C           4.4364894    -1.2507855     0.3795750
H           4.8166272    -2.1595858     0.8377979
C           5.1928674    -0.5414946    -0.5523265
H           6.1743277    -0.9113278    -0.8368207
C          -1.0400059    -1.6372234    -2.0418616
H          -1.5963081    -1.6159255    -2.9751855
C           0.0581439    -2.4847635    -1.9199679
H           0.3747427    -3.1264904    -2.7360465
C           0.7805014    -2.5179767    -0.7239173
O           1.8334506    -3.3847015    -0.6511249
H           2.3998548    -3.1487293     0.1013879
C           0.4048376    -1.7030640     0.3610742
C          -0.6994158    -0.8562380     0.2106799
H          -0.9963980    -0.2303316     1.0498436
C          -1.4242211    -0.8150279    -0.9788440
H          -2.2798070    -0.1534173    -1.0750364
27
379_C13H12O2_22-0-3-10 (30,) energy =    -653.0362232
C           1.1059054    -1.7934264     1.6777027
H           0.9750379    -2.7851723     2.1246413
H           0.6803607    -1.0597296     2.3743095
O           2.5497636    -1.6289768     1.6578357
C           4.6675963     0.7146002    -1.0713294
H           5.2412799     1.3156177    -1.7708847
C           3.4396401     1.1724490    -0.5922149
H           3.0545655     2.1363914    -0.9141384
C           2.6955166     0.4086720     0.3087070
H           1.7491267     0.7785397     0.6858465
C           3.1808042    -0.8372608     0.7190291
C           4.4153528    -1.2983752     0.2502548
H           4.7854220    -2.2583178     0.5988082
C           5.1540046    -0.5216078    -0.6405440
H           6.1114050    -0.8880706    -1.0010140
C          -1.0168663    -1.6996934    -2.0655539
H          -1.5632828    -1.7045550    -3.0049446
C           0.0476396    -2.5805894    -1.8896874
H           0.3467791    -3.2741345    -2.6691759
C           0.7558603    -2.5797865    -0.6849726
O           1.7777302    -3.4744142    -0.5475259
H           2.3190134    -3.2256570     0.2217362
C           0.4011449    -1.6944307     0.3510792
C          -0.6681292    -0.8162580     0.1482982
H          -0.9477382    -0.1354892     0.9500520
C          -1.3802693    -0.8108239    -1.0499984
H          -2.2087929    -0.1231573    -1.1902013
27
379_C13H12O2_22-0-3-10 (45,) energy =    -653.0402947
C           1.1182182    -1.7370049     1.6355507
H           0.9129356    -2.6650148     2.1797250
H           0.7979916    -0.9023683     2.2728718
O           2.5644137    -1.7388675     1.5365612
C           4.7277140     0.8013622    -0.9728201
H           5.3132917     1.4502134    -1.6175405
C           3.4945393     1.2267115    -0.4792536
H           3.1157122     2.2125213    -0.7355564
C           2.7327325     0.4006977     0.3501378
H           1.7791653     0.7464473     0.7313312
C           3.2108377    -0.8718092     0.6756226
C           4.4495288    -1.3037731     0.1905950
H           4.8091479    -2.2901006     0.4687892
C           5.2026147    -0.4668474    -0.6297126
H           6.1629808    -0.8107073    -1.0042121
C          -1.0897008    -1.7922573    -2.0602769
H          -1.6578172    -1.8337102    -2.9858169
C          -0.0388950    -2.6848798    -1.8628381
H           0.2282018    -3.4233977    -2.6121377
C           0.6980253    -2.6390326    -0.6758060
O           1.7056904    -3.5442503    -0.5146793
H           2.2588912    -3.2663756     0.2386177
C           0.3844885    -1.6931169     0.3198709
C          -0.6700873    -0.8030077     0.0954666
H          -0.9157846    -0.0741120     0.8656027
C          -1.4109002    -0.8443398    -1.0847483
H          -2.2274173    -0.1461411    -1.2423223
27
379_C13H12O2_22-0-3-10 (60,) energy =    -653.0432451
C           1.1557767    -1.6929863     1.5429847
H           0.9183879    -2.5582024     2.1711206
H           0.9437158    -0.7895740     2.1288038
O           2.5809617    -1.8266395     1.3489560
C           4.8762192     0.8883720    -0.8397476
H           5.4967363     1.5790320    -1.4031318
C           3.5863287     1.2520000    -0.4575734
H           3.1954848     2.2309790    -0.7218556
C           2.7755080     0.3721262     0.2653184
H           1.7732071     0.6714763     0.5450993
C           3.2699100    -0.8907956     0.6011224
C           4.5657515    -1.2634550     0.2251985
H           4.9309566    -2.2464525     0.5074288
C           5.3619292    -0.3754199    -0.4921333
H           6.3660154    -0.6737618    -0.7813129
C          -1.2740576    -1.8729145    -2.0113491
H          -1.8980534    -1.9427427    -2.8983928
C          -0.2221182    -2.7697895    -1.8434105
H          -0.0082048    -3.5392107    -2.5786295
C           0.5887609    -2.6899059    -0.7066968
O           1.5946453    -3.6011210    -0.5787125
H           2.1979116    -3.2988496     0.1267660
C           0.3461558    -1.7025769     0.2689519
C          -0.7103291    -0.8074293     0.0731410
H          -0.8994787    -0.0450548     0.8269174
C          -1.5241320    -0.8839072    -1.0560877
H          -2.3407555    -0.1809245    -1.1902130
27
379_C13H12O2_22-0-3-10 (75,) energy =    -653.0446112
C           1.2096188    -1.6611389     1.4077056
H           0.9775874    -2.4703803     2.1090687
H           1.0931168    -0.7114416     1.9432421
O           2.6025399    -1.8870551     1.1096784
C           5.0541884     0.9837423    -0.6712454
H           5.7152846     1.7140363    -1.1283953
C           3.7042896     1.2746463    -0.4870849
H           3.3051374     2.2343296    -0.8044521
C           2.8397856     0.3434118     0.0970940
H           1.7891983     0.5813873     0.2061460
C           3.3462218    -0.8941893     0.5022309
C           4.7014623    -1.1963224     0.3208221
H           5.0707379    -2.1629016     0.6500666
C           5.5474844    -0.2599090    -0.2648082
H           6.5979553    -0.5023804    -0.4012231
C          -1.5081353    -1.9511528    -1.9277897
H          -2.2051658    -2.0465937    -2.7561283
C          -0.4497918    -2.8491474    -1.8178733
H          -0.3017265    -3.6442182    -2.5419704
C           0.4569075    -2.7385891    -0.7579649
O           1.4654882    -3.6522984    -0.6895035
H           2.1320515    -3.3265132    -0.0541950
C           0.3011379    -1.7176751     0.2012096
C          -0.7633681    -0.8204543     0.0627461
H          -0.8845957    -0.0308873     0.8025504
C          -1.6708169    -0.9280561    -0.9899881
H          -2.4917001    -0.2228263    -1.0786017
27
379_C13H12O2_22-0-3-10 (90,) energy =    -653.0444499
C           1.2606042    -1.6265782     1.2526475
H           1.0644654    -2.3870681     2.0179465
H           1.2149272    -0.6448419     1.7358278
O           2.6159739    -1.9104512     0.8449143
C           5.2107422     1.0727184    -0.4893245
H           5.9062365     1.8333196    -0.8316663
C           3.8391591     1.3202968    -0.4939613
H           3.4587802     2.2747392    -0.8480685
C           2.9325972     0.3487877    -0.0595574
H           1.8674319     0.5437109    -0.1036323
C           3.4179804    -0.8808255     0.3942627
C           4.7928752    -1.1411557     0.3990162
H           5.1422295    -2.1042120     0.7584553
C           5.6818627    -0.1660962    -0.0445076
H           6.7485357    -0.3735635    -0.0358181
C          -1.7351211    -2.0409954    -1.8229109
H          -2.5022330    -2.1663289    -2.5824914
C          -0.6747906    -2.9416483    -1.7664790
H          -0.5932596    -3.7673871    -2.4664427
C           0.3227698    -2.7940338    -0.7963383
O           1.3303993    -3.7109109    -0.7810672
H           2.0601343    -3.3540552    -0.2382947
C           0.2542211    -1.7335032     0.1299896
C          -0.8128795    -0.8323798     0.0432951
H          -0.8650500    -0.0104706     0.7553844
C          -1.8094461    -0.9765569    -0.9209540
H          -2.6305886    -0.2676827    -0.9689537
27
379_C13H12O2_22-0-3-10 (105,) energy =    -653.0431185
C           1.2879626    -1.5672347     1.0840980
H           1.1540085    -2.2817346     1.9064987
H           1.2739693    -0.5599410     1.5104633
O           2.6054828    -1.8693053     0.5702228
C           5.3593053     1.1395839    -0.3013195
H           6.0924921     1.9083352    -0.5270666
C           3.9973569     1.4012118    -0.4498418
H           3.6647166     2.3741991    -0.8014724
C           3.0458343     0.4182762    -0.1669091
H           1.9906460     0.6169645    -0.3222613
C           3.4721537    -0.8344882     0.2844586
C           4.8351218    -1.1089478     0.4318917
H           5.1376286    -2.0906975     0.7828980
C           5.7725966    -0.1222088     0.1346233
H           6.8308565    -0.3389329     0.2530125
C          -1.9366531    -2.1631395    -1.7178537
H          -2.7608360    -2.3326614    -2.4057195
C          -0.8611318    -3.0474387    -1.7069541
H          -0.8234825    -3.9032927    -2.3737055
C           0.2097949    -2.8435971    -0.8296581
O           1.2297295    -3.7466348    -0.8578463
H           2.0025991    -3.3490725    -0.4120465
C           0.1993176    -1.7430689     0.0516205
C          -0.8839538    -0.8581129     0.0088521
H          -0.8903611    -0.0041267     0.6839941
C          -1.9533105    -1.0582762    -0.8631571
H          -2.7855402    -0.3609054    -0.8770719
27
379_C13H12O2_22-0-3-10 (120,) energy =    -653.0415169
C           1.2891390    -1.4739942     0.9115910
H           1.2352265    -2.1382132     1.7850707
H           1.2672380    -0.4434545     1.2755035
O           2.5697043    -1.7610775     0.3007334
C           5.5097034     1.1651119    -0.1271232
H           6.2884853     1.9132722    -0.2423804
C           4.1731097     1.5031816    -0.3430156
H           3.9073737     2.5150853    -0.6369954
C           3.1652467     0.5471351    -0.2031446
H           2.1313930     0.8051346    -0.4099926
C           3.5053418    -0.7560322     0.1736415
C           4.8411922    -1.1056663     0.3882601
H           5.0776346    -2.1250283     0.6772916
C           5.8384682    -0.1443714     0.2317657
H           6.8760763    -0.4195790     0.4006273
C          -2.0953263    -2.3275212    -1.6205469
H          -2.9583803    -2.5611728    -2.2383906
C          -0.9920979    -3.1769591    -1.6363655
H          -0.9707005    -4.0682082    -2.2557925
C           0.1287585    -2.8908469    -0.8492007
O           1.1739192    -3.7639795    -0.8999360
H           1.9653693    -3.3164134    -0.5440337
C           0.1413735    -1.7424468    -0.0314103
C          -0.9712632    -0.8940922    -0.0474842
H          -0.9602341    -0.0027122     0.5772465
C          -2.0903876    -1.1760145    -0.8297938
H          -2.9443572    -0.5052999    -0.8242511
27
379_C13H12O2_22-0-3-10 (135,) energy =    -653.0418388
C           1.1344786    -1.1271920     0.7364962
H           1.0331653    -1.4897545     1.7689194
H           1.0211824    -0.0394152     0.7443632
O           2.4598558    -1.4807867     0.2810503
C           5.5665177     1.2831606    -0.0179159
H           6.3872112     1.9886114    -0.1082810
C           4.5769213     1.4748236     0.9452183
H           4.6272435     2.3281240     1.6163400
C           3.5185953     0.5711747     1.0725780
H           2.7729162     0.7160695     1.8474021
C           3.4485953    -0.5277778     0.2105845
C           4.4400892    -0.7309367    -0.7556857
H           4.3627941    -1.5916629    -1.4127405
C           5.4944157     0.1721561    -0.8632935
H           6.2590618     0.0106508    -1.6183346
C          -1.9374444    -2.9254765    -1.6953497
H          -2.7231958    -3.3901212    -2.2851846
C          -0.8246635    -3.6764111    -1.3245956
H          -0.7198648    -4.7172977    -1.6144605
C           0.1965262    -3.0925472    -0.5678358
O           1.2582183    -3.8776402    -0.2264648
H           2.0022098    -3.2963847     0.0194018
C           0.0989550    -1.7431960    -0.1719034
C          -1.0185130    -1.0039422    -0.5730956
H          -1.0901584     0.0411301    -0.2783971
C          -2.0388852    -1.5818160    -1.3275347
H          -2.8990363    -0.9903550    -1.6265718
27
379_C13H12O2_22-0-3-10 (150,) energy =    -653.0431543
C           1.1460765    -1.0270600     0.5532980
H           1.1369179    -1.3437118     1.6066543
H           0.9984334     0.0572599     0.5222973
O           2.4342546    -1.3585285    -0.0064651
C           5.6816496     1.2507015     0.1549667
H           6.5387595     1.9170711     0.1800699
C           4.6333570     1.4182470     1.0576207
H           4.6721972     2.2140221     1.7967417
C           3.5259189     0.5650451     1.0360957
H           2.7312867     0.6944949     1.7628318
C           3.4701812    -0.4597814     0.0864834
C           4.5211110    -0.6386824    -0.8212020
H           4.4528125    -1.4414862    -1.5488269
C           5.6200372     0.2141448    -0.7817969
H           6.4301882     0.0718199    -1.4919120
C          -2.0376036    -3.0284219    -1.5498077
H          -2.8500039    -3.5438871    -2.0552882
C          -0.8867884    -3.7343275    -1.2075024
H          -0.7783718    -4.7896919    -1.4374005
C           0.1680044    -3.0840085    -0.5590620
O           1.2676473    -3.8245619    -0.2386273
H           2.0125572    -3.2141425    -0.0824576
C           0.0666104    -1.7140106    -0.2436506
C          -1.0903140    -1.0217477    -0.6149750
H          -1.1656872     0.0385657    -0.3825790
C          -2.1444294    -1.6658278    -1.2617915
H          -3.0353988    -1.1107289    -1.5394539
27
379_C13H12O2_22-0-3-10 (165,) energy =    -653.0444657
C           1.1274849    -0.9078677     0.3698984
H           1.2146432    -1.1954196     1.4287127
H           0.9246244     0.1680864     0.3256880
O           2.3798322    -1.1913258    -0.2848655
C           5.7725295     1.1571003     0.3189704
H           6.6680388     1.7558840     0.4561542
C           4.6666208     1.3445513     1.1447951
H           4.6969068     2.0901650     1.9348454
C           3.5077627     0.5788694     0.9789189
H           2.6643401     0.7310081     1.6426977
C           3.4633716    -0.3812632    -0.0362908
C           4.5717585    -0.5784719    -0.8698461
H           4.5101264    -1.3287516    -1.6521886
C           5.7179056     0.1884623    -0.6887482
H           6.5724484     0.0312362    -1.3413439
C          -2.1020499    -3.1288699    -1.4163901
H          -2.9242539    -3.6992964    -1.8404224
C          -0.8982469    -3.7695464    -1.1331218
H          -0.7582477    -4.8278618    -1.3299203
C           0.1691704    -3.0477860    -0.5895264
O           1.3226476    -3.7246153    -0.3225007
H           2.0448544    -3.0727215    -0.2453875
C           0.0275834    -1.6716051    -0.3201625
C          -1.1836170    -1.0458920    -0.6318199
H          -1.2904888     0.0190011    -0.4357491
C          -2.2506753    -1.7612866    -1.1737808
H          -3.1840133    -1.2573569    -1.4060683
27
379_C13H12O2_22-0-3-10 (180,) energy =    -653.0450272
C           1.0862081    -0.7619150     0.2065086
H           1.2654250    -1.0294470     1.2590184
H           0.8118272     0.2989952     0.1679152
O           2.3062682    -0.9743345    -0.5301203
C           5.8409730     1.0057360     0.4637910
H           6.7736142     1.5085734     0.7016666
C           4.6934283     1.2609290     1.2104031
H           4.7263437     1.9659136     2.0368043
C           3.4855701     0.6196448     0.9148802
H           2.6063701     0.8339725     1.5110993
C           3.4370659    -0.2887885    -0.1465579
C           4.5863247    -0.5501552    -0.9040979
H           4.5204545    -1.2549734    -1.7274811
C           5.7790580     0.0954514    -0.5966967
H           6.6654951    -0.1129148    -1.1896598
C          -2.1142171    -3.2253255    -1.2896110
H          -2.9274124    -3.8568839    -1.6375276
C          -0.8542593    -3.7822311    -1.0847282
H          -0.6612791    -4.8344522    -1.2690103
C           0.2021709    -2.9813074    -0.6393949
O           1.4141440    -3.5758617    -0.4475906
H           2.0919774    -2.8733541    -0.4439062
C          -0.0066121    -1.6101892    -0.3886298
C          -1.2748997    -1.0692069    -0.6228359
H          -1.4348178    -0.0081139    -0.4429141
C          -2.3312813    -1.8634701    -1.0667332
H          -3.3094746    -1.4247249    -1.2389136
