27
379_C13H12O2_0-3-10-8 (-165,) energy =    -653.0446255
C           1.5321287    -1.6630346     0.3000746
H           2.1650401    -2.5591257     0.3874268
H           1.4123162    -1.2331402     1.3014693
O           2.1965942    -0.7119618    -0.5554160
C           5.7263197     1.1758023     0.6156170
H           6.6422936     1.6852048     0.8998514
C           4.9638351     1.6446037    -0.4592750
H           5.2819821     2.5232383    -1.0139493
C           3.7869661     0.9986206    -0.8234374
H           3.1777520     1.3547890    -1.6484709
C           3.3681188    -0.1357293    -0.1168176
C           4.1190830    -0.6112332     0.9621113
H           3.8055850    -1.4857865     1.5206514
C           5.2971054     0.0528092     1.3194169
H           5.8791741    -0.3207385     2.1576933
C          -2.2620105    -2.8679009    -1.3434591
H          -3.2108659    -3.2016008    -1.7551899
C          -1.1410672    -2.8082900    -2.1679173
H          -1.1922088    -3.0834282    -3.2167598
C           0.0862537    -2.3789302    -1.6529483
O           1.1547542    -2.3468176    -2.4996275
H           1.8299818    -1.7600290    -2.1086052
C           0.1940545    -2.0122445    -0.2963818
C          -0.9499145    -2.0598028     0.5065646
H          -0.8706649    -1.7646023     1.5507892
C          -2.1756459    -2.4875565    -0.0021153
H          -3.0513873    -2.5206676     0.6389988
27
379_C13H12O2_0-3-10-8 (-150,) energy =    -653.0435932
C           1.5368502    -1.6775344     0.2958159
H           2.1192559    -2.5948047     0.4683226
H           1.4208471    -1.1631815     1.2566307
O           2.2658138    -0.8284618    -0.6169563
C           5.6753155     1.2171227     0.6453756
H           6.5597460     1.7650412     0.9569211
C           4.8407712     1.7325399    -0.3508579
H           5.0714649     2.6873282    -0.8156116
C           3.7013502     1.0369737    -0.7465488
H           3.0343957     1.4263978    -1.5093818
C           3.4005957    -0.1948100    -0.1551949
C           4.2242281    -0.7179496     0.8458089
H           3.9954098    -1.6701478     1.3120279
C           5.3594363    -0.0038046     1.2395094
H           5.9993393    -0.4136451     2.0164056
C          -2.2722744    -2.8278297    -1.3516319
H          -3.2262444    -3.1474291    -1.7627526
C          -1.1303033    -2.8859846    -2.1469476
H          -1.1696333    -3.2396084    -3.1725236
C           0.1039392    -2.4761747    -1.6326267
O           1.1930681    -2.5611427    -2.4488271
H           1.8871147    -1.9769777    -2.0872984
C           0.1967997    -2.0101331    -0.3057346
C          -0.9667558    -1.9406621     0.4667565
H          -0.8984588    -1.5690878     1.4871023
C          -2.1994862    -2.3485103    -0.0416064
H          -3.0909956    -2.2900592     0.5755415
27
379_C13H12O2_0-3-10-8 (-135,) energy =    -653.0425167
C           1.4660405    -1.5423115     0.3510210
H           2.0331251    -2.4307043     0.6640229
H           1.2992511    -0.9174984     1.2358704
O           2.2475320    -0.8009350    -0.6152821
C           5.7065284     1.1791973     0.6248091
H           6.6050155     1.7069075     0.9313024
C           4.7690673     1.8056407    -0.2002957
H           4.9339375     2.8256951    -0.5365902
C           3.6110465     1.1337992    -0.5884385
H           2.8650026     1.6040849    -1.2213073
C           3.3981393    -0.1798394    -0.1622618
C           4.3294851    -0.8168598     0.6625345
H           4.1683920    -1.8391437     0.9891470
C           5.4802692    -0.1290471     1.0539568
H           6.2046924    -0.6258984     1.6937236
C          -2.2477757    -2.8973910    -1.3569073
H          -3.1778043    -3.2684934    -1.7795146
C          -1.0644229    -3.0366760    -2.0782319
H          -1.0479646    -3.5040273    -3.0579017
C           0.1397450    -2.5622386    -1.5482087
O           1.2720706    -2.7293924    -2.2890166
H           1.9423905    -2.1003209    -1.9574985
C           0.1601556    -1.9486014    -0.2794751
C          -1.0436029    -1.8001268     0.4163934
H          -1.0308221    -1.3148930     1.3901712
C          -2.2465210    -2.2721771    -0.1077367
H          -3.1702151    -2.1508652     0.4501066
27
379_C13H12O2_0-3-10-8 (-120,) energy =    -653.0421799
C           1.3514748    -1.2988036     0.3707028
H           1.9304721    -2.0989725     0.8532768
H           1.0963848    -0.5588635     1.1387351
O           2.1800393    -0.6666932    -0.6379230
C           5.7713220     1.0681400     0.5987879
H           6.7065574     1.5282091     0.9046293
C           4.7673656     1.8415270     0.0125427
H           4.9181223     2.9067803    -0.1399563
C           3.5632525     1.2540000    -0.3774533
H           2.7688015     1.8360621    -0.8339529
C           3.3715269    -0.1151233    -0.1867264
C           4.3733913    -0.9005262     0.3898338
H           4.2253173    -1.9692795     0.5138047
C           5.5701966    -0.3012071     0.7851674
H           6.3511428    -0.9109881     1.2313397
C          -2.1798665    -3.0587618    -1.3541128
H          -3.0635785    -3.5304007    -1.7759036
C          -0.9462606    -3.2367876    -1.9758130
H          -0.8450967    -3.8326608    -2.8775701
C           0.1993372    -2.6346837    -1.4455534
O           1.3850445    -2.8432400    -2.0850640
H           1.9993640    -2.1362116    -1.8036033
C           0.1100145    -1.8519964    -0.2765464
C          -1.1431292    -1.6684218     0.3164268
H          -1.2157597    -1.0530042     1.2108096
C          -2.2878587    -2.2677641    -0.2077554
H          -3.2511197    -2.1165715     0.2701706
27
379_C13H12O2_0-3-10-8 (-105,) energy =    -653.0422411
C           1.2984987    -1.1592995     0.3359377
H           1.8597872    -1.8939082     0.9322901
H           1.0125806    -0.3360819     1.0020187
O           2.1778752    -0.6482538    -0.6999108
C           5.7763459     1.0160930     0.6076999
H           6.7150350     1.4544999     0.9342588
C           4.7248630     1.8380811     0.1969205
H           4.8433708     2.9181905     0.2017747
C           3.5169496     1.2787174    -0.2233470
H           2.6885720     1.8983326    -0.5528456
C           3.3717086    -0.1086790    -0.2358770
C           4.4188020    -0.9404832     0.1672872
H           4.2924330    -2.0191620     0.1348649
C           5.6207808    -0.3719222     0.5909649
H           6.4391486    -1.0161699     0.9006143
C          -2.1606786    -3.1201795    -1.3163386
H          -3.0268040    -3.6412590    -1.7158599
C          -0.9039408    -3.3583504    -1.8675632
H          -0.7674730    -4.0499249    -2.6931388
C           0.2194867    -2.6939612    -1.3649178
O           1.4293529    -2.9633364    -1.9324153
H           2.0275811    -2.2222249    -1.7086810
C           0.0842718    -1.7868036    -0.2942882
C          -1.1910921    -1.5462286     0.2266752
H          -1.2987064    -0.8357962     1.0437984
C          -2.3138476    -2.2072572    -0.2700838
H          -3.2949074    -2.0099927     0.1515376
27
379_C13H12O2_0-3-10-8 (-90,) energy =    -653.0422043
C           1.2809764    -1.1074949     0.3200473
H           1.7993890    -1.7972099     1.0034146
H           0.9925788    -0.2198348     0.8960234
O           2.2181667    -0.7211132    -0.7192768
C           5.7692162     1.0146687     0.6226725
H           6.6964748     1.4696046     0.9591551
C           4.6514930     1.8119251     0.3652970
H           4.7078829     2.8888526     0.4985610
C           3.4591993     1.2324317    -0.0707274
H           2.5841849     1.8369333    -0.2902933
C           3.3944990    -0.1504170    -0.2487639
C           4.5054393    -0.9562935     0.0052176
H           4.4338566    -2.0296360    -0.1475014
C           5.6943037    -0.3677377     0.4397277
H           6.5628750    -0.9914767     0.6324261
C          -2.1692834    -3.1218115    -1.2864571
H          -3.0346040    -3.6547740    -1.6717874
C          -0.9005194    -3.4398879    -1.7648805
H          -0.7535645    -4.2059539    -2.5198736
C           0.2223653    -2.7615417    -1.2798258
O           1.4436760    -3.1110981    -1.7742278
H           2.0548926    -2.3696632    -1.5902299
C           0.0739013    -1.7587729    -0.2999580
C          -1.2124374    -1.4408247     0.1475814
H          -1.3298965    -0.6577255     0.8939170
C          -2.3346573    -2.1152430    -0.3319587
H          -3.3244540    -1.8564409     0.0320182
27
379_C13H12O2_0-3-10-8 (-75,) energy =    -653.0421081
C           1.2599244    -1.0781018     0.3137557
H           1.7220050    -1.7229215     1.0767391
H           0.9687988    -0.1399141     0.8001349
O           2.2605118    -0.8099418    -0.7029472
C           5.7732550     1.0312930     0.6012215
H           6.6915955     1.5114039     0.9268579
C           4.5899322     1.7687547     0.5134547
H           4.5865604     2.8255833     0.7661697
C           3.4090137     1.1586155     0.0900899
H           2.4882915     1.7268659    -0.0040228
C           3.4178519    -0.1985533    -0.2408277
C           4.5940460    -0.9442217    -0.1543854
H           4.5783796    -1.9976111    -0.4192370
C           5.7726566    -0.3230829     0.2630020
H           6.6903262    -0.9015526     0.3249291
C          -2.1754038    -3.1139326    -1.2992954
H          -3.0389345    -3.6501927    -1.6840486
C          -0.8967906    -3.5086020    -1.6852065
H          -0.7399805    -4.3382856    -2.3674752
C           0.2242709    -2.8271933    -1.1999710
O           1.4545774    -3.2540605    -1.6022507
H           2.0834020    -2.5222408    -1.4421883
C           0.0634865    -1.7429909    -0.3132233
C          -1.2314351    -1.3509589     0.0415213
H          -1.3579318    -0.5061499     0.7156243
C          -2.3518493    -2.0279102    -0.4384495
H          -3.3484922    -1.7101828    -0.1470983
27
379_C13H12O2_0-3-10-8 (-60,) energy =    -653.0420531
C           1.2105892    -1.0032915     0.3244298
H           1.6163105    -1.5819379     1.1678918
H           0.9004104    -0.0251177     0.7068453
O           2.2733030    -0.8431623    -0.6498330
C           5.8018761     1.0288593     0.5694172
H           6.7260636     1.5135371     0.8705079
C           4.5851758     1.7047316     0.6839829
H           4.5603458     2.7204775     1.0693248
C           3.3945117     1.0906530     0.2945754
H           2.4525196     1.6264605     0.3589745
C           3.4253048    -0.2149061    -0.2040976
C           4.6371289    -0.8981365    -0.3216635
H           4.6410642    -1.9104722    -0.7152634
C           5.8235739    -0.2708363     0.0605596
H           6.7653543    -0.8041388    -0.0356629
C          -2.1652869    -3.1269304    -1.3031981
H          -3.0159678    -3.6826606    -1.6889140
C          -0.8749913    -3.5760038    -1.5728021
H          -0.6959128    -4.4677970    -2.1653148
C           0.2298686    -2.8703882    -1.0849007
O           1.4717682    -3.3522680    -1.3717863
H           2.1051520    -2.6197425    -1.2377800
C           0.0408984    -1.7062109    -0.3126351
C          -1.2642462    -1.2626441    -0.0748703
H          -1.4122762    -0.3569652     0.5099129
C          -2.3687295    -1.9630108    -0.5578696
H          -3.3736924    -1.6035888    -0.3579928
27
379_C13H12O2_0-3-10-8 (-45,) energy =    -653.0424931
C           1.1161658    -0.8274225     0.2693807
H           1.4817236    -1.2825175     1.2017125
H           0.7553143     0.1799052     0.5033899
O           2.2296089    -0.7572268    -0.6551970
C           5.8473199     0.9371590     0.5631642
H           6.7967134     1.3725341     0.8607689
C           4.6479592     1.5539870     0.9204053
H           4.6598306     2.4771457     1.4936156
C           3.4225681     1.0036827     0.5395976
H           2.4970830     1.5022242     0.8077840
C           3.4019274    -0.1862914    -0.1940694
C           4.5994521    -0.8078161    -0.5601137
H           4.5654122    -1.7238326    -1.1429691
C           5.8167086    -0.2429729    -0.1832319
H           6.7435028    -0.7318887    -0.4707429
C          -2.1139620    -3.2236708    -1.2744742
H          -2.9294782    -3.8444294    -1.6361909
C          -0.8029179    -3.6776947    -1.3942304
H          -0.5728543    -4.6374182    -1.8463476
C           0.2567598    -2.8888247    -0.9350051
O           1.5218412    -3.3773554    -1.0700433
H           2.1321767    -2.6177038    -0.9979819
C           0.0018121    -1.6354884    -0.3424191
C          -1.3218214    -1.1915979    -0.2547873
H          -1.5203980    -0.2182702     0.1893753
C          -2.3819785    -1.9741366    -0.7100963
H          -3.4025027    -1.6123077    -0.6285219
27
379_C13H12O2_0-3-10-8 (-30,) energy =    -653.0436456
C           1.0774408    -0.7374452     0.2047274
H           1.3909860    -1.0961369     1.1964295
H           0.7146554     0.2908328     0.3151751
O           2.2324398    -0.7630531    -0.6644741
C           5.8636578     0.9017496     0.5455993
H           6.8184065     1.3275566     0.8396411
C           4.6764194     1.4069436     1.0731970
H           4.7007367     2.2331613     1.7787365
C           3.4418158     0.8682126     0.7009054
H           2.5279566     1.2800433     1.1145066
C           3.4036445    -0.1997014    -0.2006067
C           4.5907478    -0.7084224    -0.7397895
H           4.5384505    -1.5267845    -1.4521279
C           5.8131405    -0.1565959    -0.3660849
H           6.7304201    -0.5590021    -0.7872259
C          -2.0912527    -3.2651188    -1.2543289
H          -2.8930907    -3.9158584    -1.5931704
C          -0.7810770    -3.7370913    -1.2518693
H          -0.5385204    -4.7410086    -1.5860645
C           0.2613151    -2.9104252    -0.8204333
O           1.5259833    -3.4188663    -0.8311343
H           2.1425391    -2.6619136    -0.8069620
C          -0.0108691    -1.5997379    -0.3791609
C          -1.3319307    -1.1411508    -0.4132082
H          -1.5419210    -0.1246881    -0.0865934
C          -2.3749559    -1.9609896    -0.8415773
H          -3.3939800    -1.5862536    -0.8560560
27
379_C13H12O2_0-3-10-8 (-15,) energy =    -653.0446566
C           1.0830110    -0.7346669     0.1927997
H           1.3313988    -1.0369285     1.2214787
H           0.7591206     0.3125595     0.2160204
O           2.2729161    -0.8600716    -0.6126910
C           5.8630833     0.9445292     0.5121051
H           6.8091326     1.4034776     0.7834339
C           4.6870086     1.3224590     1.1557158
H           4.7108619     2.0817849     1.9328056
C           3.4621854     0.7391085     0.8152994
H           2.5593343     1.0516512     1.3270842
C           3.4257057    -0.2418879    -0.1799878
C           4.6028839    -0.6240940    -0.8358511
H           4.5474479    -1.3788554    -1.6147662
C           5.8125308    -0.0315672    -0.4883719
H           6.7210951    -0.3353891    -1.0011632
C          -2.0998059    -3.2518046    -1.2523578
H          -2.9069342    -3.8980063    -1.5872855
C          -0.8093339    -3.7651682    -1.1499874
H          -0.5867647    -4.7973441    -1.4018836
C           0.2397118    -2.9450126    -0.7222712
O           1.4830475    -3.4967372    -0.6322555
H           2.1287598    -2.7645204    -0.6259238
C          -0.0065348    -1.5985363    -0.3862449
C          -1.3067475    -1.1001263    -0.5188560
H          -1.4964419    -0.0572124    -0.2733247
C          -2.3560436    -1.9135775    -0.9440597
H          -3.3589252    -1.5077336    -1.0364145
27
379_C13H12O2_0-3-10-8 (0,) energy =    -653.0450273
C           1.0938974    -0.7674439     0.2116930
H           1.2695875    -1.0347947     1.2648702
H           0.8218037     0.2940215     0.1719584
O           2.3153826    -0.9826658    -0.5215535
C           5.8429084     1.0164990     0.4591297
H           6.7736142     1.5244537     0.6936872
C           4.6963741     1.2669140     1.2088841
H           4.7280732     1.9730077     2.0344001
C           3.4908954     0.6191545     0.9177653
H           2.6126688     0.8292775     1.5169183
C           3.4436365    -0.2906413    -0.1425374
C           4.5920532    -0.5474310    -0.9028811
H           4.5266747    -1.2538015    -1.7249547
C           5.7825291     0.1044126    -0.5999363
H           6.6682758    -0.1004244    -1.1951704
C          -2.1080257    -3.2233521    -1.2932736
H          -2.9214821    -3.8533117    -1.6434554
C          -0.8498549    -3.7832276    -1.0856755
H          -0.6585992    -4.8357700    -1.2699607
C           0.2072802    -2.9848703    -0.6374117
O           1.4174381    -3.5822236    -0.4431408
H           2.0968544    -2.8812888    -0.4368187
C           0.0009316    -1.6134081    -0.3864730
C          -1.2656195    -1.0696280    -0.6234663
H          -1.4232111    -0.0082362    -0.4432663
C          -2.3228174    -1.8611471    -1.0703024
H          -3.2996199    -1.4201292    -1.2446163
27
379_C13H12O2_0-3-10-8 (15,) energy =    -653.0446570
C           1.1042185    -0.8072577     0.2477366
H           1.2006368    -1.0346228     1.3202474
H           0.8869033     0.2624715     0.1458345
O           2.3563121    -1.1085067    -0.3998328
C           5.8162524     1.0796179     0.3987805
H           6.7298140     1.6354809     0.5878585
C           4.7217629     1.2145036     1.2499066
H           4.7786636     1.8755905     2.1105838
C           3.5400109     0.5030311     1.0182164
H           2.7029411     0.6172672     1.6974259
C           3.4601279    -0.3458152    -0.0896695
C           4.5561207    -0.4887522    -0.9497533
H           4.4664249    -1.1542743    -1.8028426
C           5.7262885     0.2215749    -0.7022433
H           6.5715319     0.1072336    -1.3755323
C          -2.1009272    -3.2056110    -1.3408913
H          -2.9169103    -3.8195592    -1.7129706
C          -0.8810620    -3.8023775    -1.0318072
H          -0.7223005    -4.8688136    -1.1578665
C           0.1788689    -3.0250625    -0.5540814
O           1.3493512    -3.6590958    -0.2582747
H           2.0577184    -2.9876107    -0.2386203
C           0.0133558    -1.6366657    -0.3769966
C          -1.2136496    -1.0567526    -0.7144087
H          -1.3385913     0.0169515    -0.5903748
C          -2.2733981    -1.8275692    -1.1907106
H          -3.2194153    -1.3584262    -1.4436820
27
379_C13H12O2_0-3-10-8 (30,) energy =    -653.0437052
C           1.1006651    -0.8081004     0.2576110
H           1.1236189    -0.9768693     1.3445788
H           0.9323904     0.2608371     0.0835712
O           2.3773022    -1.1897706    -0.2983997
C           5.7937729     1.1141124     0.3474174
H           6.6957001     1.6997552     0.4991622
C           4.7760701     1.1311155     1.2999040
H           4.8837379     1.7274353     2.2020315
C           3.6122587     0.3790120     1.1164316
H           2.8343608     0.3937120     1.8720872
C           3.4676228    -0.3842852    -0.0458260
C           4.4851302    -0.4098184    -1.0059129
H           4.3468868    -1.0143253    -1.8969325
C           5.6428994     0.3368034    -0.8048806
H           6.4285150     0.3155079    -1.5553381
C          -2.0888198    -3.1954045    -1.3780593
H          -2.9022411    -3.8052042    -1.7623911
C          -0.9099947    -3.8098047    -0.9622687
H          -0.7807670    -4.8862512    -1.0166677
C           0.1462278    -3.0381683    -0.4675126
O           1.2753191    -3.6887014    -0.0653649
H           2.0054474    -3.0406728    -0.0434963
C           0.0178424    -1.6372805    -0.3812970
C          -1.1668422    -1.0410273    -0.8244803
H          -1.2621410     0.0414731    -0.7702194
C          -2.2227523    -1.8062684    -1.3182991
H          -3.1359690    -1.3243947    -1.6543157
27
379_C13H12O2_0-3-10-8 (45,) energy =    -653.0426235
C           1.0909509    -0.7327321     0.1601786
H           1.0672905    -0.7811957     1.2584004
H           0.9537381     0.3133368    -0.1363024
O           2.3814236    -1.1950335    -0.3034692
C           5.8034658     1.0956618     0.3747415
H           6.7057269     1.6782638     0.5365181
C           4.8700806     0.9472006     1.4011661
H           5.0459037     1.4095515     2.3687806
C           3.7091080     0.1962108     1.2042550
H           2.9976209     0.0725011     2.0142106
C           3.4795928    -0.3958580    -0.0410971
C           4.4096050    -0.2541111    -1.0744909
H           4.2063361    -0.7294767    -2.0289413
C           5.5698519     0.4882906    -0.8615875
H           6.2904883     0.5968347    -1.6676282
C          -2.0840092    -3.2335427    -1.3265461
H          -2.8948340    -3.8691609    -1.6726925
C          -0.9324184    -3.8169979    -0.8035783
H          -0.8215378    -4.8948232    -0.7369874
C           0.1200344    -3.0119624    -0.3562116
O           1.2224047    -3.6303411     0.1551644
H           1.9627045    -2.9930977     0.1301689
C           0.0151205    -1.6081456    -0.4263856
C          -1.1414090    -1.0456511    -0.9752513
H          -1.2181003     0.0376615    -1.0415950
C          -2.1935871    -1.8442556    -1.4222191
H          -3.0852450    -1.3881787    -1.8417999
27
379_C13H12O2_0-3-10-8 (60,) energy =    -653.0421767
C           1.1031092    -0.6317586    -0.0729150
H           1.0711394    -0.4974884     1.0175349
H           0.9874405     0.3549184    -0.5369062
O           2.3950922    -1.1784937    -0.4396697
C           5.8100856     1.0419541     0.4789385
H           6.7084688     1.6086953     0.7060084
C           4.9452484     0.6582131     1.5059443
H           5.1718944     0.9206089     2.5357944
C           3.7915642    -0.0746989     1.2231692
H           3.1319748    -0.3920050     2.0253304
C           3.5025431    -0.4133017    -0.1016161
C           4.3611102    -0.0346755    -1.1348807
H           4.1119311    -0.3182030    -2.1526287
C           5.5169515     0.6890561    -0.8399436
H           6.1867732     0.9802897    -1.6444761
C          -2.1048330    -3.2814900    -1.1825306
H          -2.9248310    -3.9494865    -1.4328996
C          -0.9639199    -3.7968735    -0.5720185
H          -0.8700970    -4.8539935    -0.3436447
C           0.0999807    -2.9497029    -0.2456844
O           1.1926728    -3.4991245     0.3564600
H           1.9397932    -2.8804067     0.2327726
C           0.0175894    -1.5708568    -0.5268388
C          -1.1280659    -1.0805565    -1.1613869
H          -1.1868884    -0.0187313    -1.3915659
C          -2.1918282    -1.9210493    -1.4876344
H          -3.0747948    -1.5199867    -1.9761629
27
379_C13H12O2_0-3-10-8 (75,) energy =    -653.0422338
C           1.1386300    -0.6022854    -0.2423824
H           1.0915306    -0.3244159     0.8208973
H           1.0611564     0.3188601    -0.8327572
O           2.4277681    -1.2201232    -0.4950322
C           5.7877356     1.0305302     0.5412600
H           6.6708279     1.6061093     0.8035931
C           5.0133001     0.4418113     1.5436485
H           5.2943553     0.5545689     2.5871840
C           3.8807715    -0.3031900     1.2124353
H           3.2823930    -0.7797847     1.9840180
C           3.5261109    -0.4506611    -0.1305836
C           4.2931539     0.1327226    -1.1392712
H           3.9975718    -0.0087679    -2.1742959
C           5.4277862     0.8709481    -0.7984832
H           6.0304925     1.3214155    -1.5824074
C          -2.1209082    -3.2879326    -1.0812241
H          -2.9550737    -3.9605102    -1.2632247
C          -1.0041800    -3.7531480    -0.3909572
H          -0.9430043    -4.7762900    -0.0333164
C           0.0774587    -2.8996112    -0.1507648
O           1.1460812    -3.3976090     0.5336294
H           1.9100091    -2.8165327     0.3440965
C           0.0375589    -1.5639972    -0.6001719
C          -1.0841681    -1.1268571    -1.3118304
H          -1.1100291    -0.1002005    -1.6713854
C          -2.1655599    -1.9736120    -1.5524935
H          -3.0294721    -1.6133686    -2.1029796
27
379_C13H12O2_0-3-10-8 (90,) energy =    -653.0422145
C           1.1617908    -0.6070948    -0.3126502
H           1.0749650    -0.2313373     0.7181962
H           1.1359634     0.2574830    -0.9870811
O           2.4451416    -1.2742404    -0.4382257
C           5.7774153     1.0405433     0.5425860
H           6.6529196     1.6327837     0.7930559
C           5.1269626     0.3010488     1.5326894
H           5.4952189     0.3147108     2.5548523
C           4.0034304    -0.4638966     1.2149371
H           3.4915002    -1.0499235     1.9732648
C           3.5379914    -0.4847693    -0.1008852
C           4.1820146     0.2488912    -1.0982426
H           3.8071817     0.2016864    -2.1163197
C           5.3042638     1.0113599    -0.7713128
H           5.8124336     1.5787415    -1.5462637
C          -2.1282639    -3.2812522    -1.0658169
H          -2.9713608    -3.9478804    -1.2273846
C          -1.0570295    -3.7090135    -0.2851971
H          -1.0399978    -4.6973795     0.1634784
C           0.0356715    -2.8629490    -0.0697954
O           1.0582989    -3.3231923     0.7053620
H           1.8444787    -2.7771204     0.5029791
C           0.0527996    -1.5719903    -0.6362280
C          -1.0234843    -1.1740062    -1.4357433
H          -1.0054171    -0.1830236    -1.8848266
C          -2.1156456    -2.0133753    -1.6522328
H          -2.9436315    -1.6834866    -2.2725343
27
379_C13H12O2_0-3-10-8 (105,) energy =    -653.0421217
C           1.1629138    -0.6059680    -0.3464674
H           1.0253561    -0.1476849     0.6447463
H           1.1867816     0.2011440    -1.0879785
O           2.4388677    -1.2981808    -0.3403058
C           5.7914250     1.0345977     0.5236659
H           6.6723587     1.6300174     0.7457468
C           5.2645698     0.1770269     1.4910317
H           5.7331355     0.1024790     2.4685256
C           4.1319153    -0.5894123     1.2103103
H           3.7106640    -1.2604807     1.9534596
C           3.5354639    -0.4983162    -0.0478259
C           4.0585354     0.3522254    -1.0245481
H           3.5915215     0.3916148    -2.0042785
C           5.1864487     1.1196062    -0.7327863
H           5.5984862     1.7781080    -1.4926304
C          -2.1267641    -3.2867763    -1.0810328
H          -2.9711615    -3.9523909    -1.2399299
C          -1.1095229    -3.6674223    -0.2093089
H          -1.1357875    -4.6182883     0.3137783
C          -0.0155475    -2.8223290     0.0041183
O           0.9519903    -3.2364032     0.8702985
H           1.7565926    -2.7141911     0.6788499
C           0.0573497    -1.5794056    -0.6573998
C          -0.9649666    -1.2296977    -1.5455988
H          -0.9039530    -0.2765582    -2.0670554
C          -2.0580834    -2.0680907    -1.7605055
H          -2.8434955    -1.7755752    -2.4509393
27
379_C13H12O2_0-3-10-8 (120,) energy =    -653.0420495
C           1.1496068    -0.5869072    -0.4019476
H           0.9670115    -0.0442268     0.5378242
H           1.2107951     0.1511465    -1.2088721
O           2.4154971    -1.2830405    -0.2685510
C           5.8207831     1.0021314     0.5193464
H           6.7156811     1.5823428     0.7248146
C           5.3932069     0.0286739     1.4237712
H           5.9528828    -0.1521318     2.3373915
C           4.2409242    -0.7153049     1.1657716
H           3.8955953    -1.4725463     1.8636765
C           3.5224718    -0.4896654    -0.0094744
C           3.9480386     0.4764321    -0.9256773
H           3.3973269     0.6270968    -1.8491663
C           5.0951361     1.2222749    -0.6535893
H           5.4274905     1.9710135    -1.3675881
C          -2.1232233    -3.3047431    -1.0769816
H          -2.9646879    -3.9769476    -1.2231166
C          -1.1591454    -3.6126126    -0.1203942
H          -1.2238856    -4.5133005     0.4821065
C          -0.0694297    -2.7582940     0.0778552
O           0.8446696    -3.1005296     1.0288548
H           1.6623827    -2.5988953     0.8401461
C           0.0528293    -1.5791709    -0.6851528
C          -0.9161759    -1.3035656    -1.6555454
H          -0.8168987    -0.4005882    -2.2546394
C          -2.0047634    -2.1512255    -1.8560617
H          -2.7482186    -1.9162802    -2.6118190
27
379_C13H12O2_0-3-10-8 (135,) energy =    -653.0423462
C           1.1725037    -0.5687646    -0.6127196
H           0.9876172     0.1056419     0.2364256
H           1.2498769     0.0416854    -1.5186515
O           2.4233416    -1.2576138    -0.3650393
C           5.8161848     0.9723420     0.6177566
H           6.7066446     1.5366793     0.8787337
C           5.4740878    -0.1753090     1.3362423
H           6.0963368    -0.5087283     2.1622428
C           4.3267917    -0.8964505     1.0088045
H           4.0509727    -1.7888670     1.5632790
C           3.5236437    -0.4778960    -0.0557913
C           3.8591895     0.6682090    -0.7826447
H           3.2444509     0.9911889    -1.6162763
C           5.0046283     1.3882752    -0.4384188
H           5.2634677     2.2775543    -1.0068385
C          -2.1371784    -3.3046284    -0.9600908
H          -2.9885102    -3.9769992    -1.0264248
C          -1.2007079    -3.4840654     0.0548223
H          -1.2964430    -4.2848547     0.7814490
C          -0.0989460    -2.6278897     0.1517038
O           0.7880591    -2.8407558     1.1641301
H           1.6175898    -2.3856685     0.9195857
C           0.0637388    -1.5759075    -0.7724284
C          -0.8780405    -1.4308408    -1.7965661
H          -0.7474243    -0.6282706    -2.5197012
C          -1.9785490    -2.2807271    -1.8971839
H          -2.7001667    -2.1477232    -2.6975758
27
379_C13H12O2_0-3-10-8 (150,) energy =    -653.0434956
C           1.2025823    -0.5895894    -0.7542114
H           1.0046718     0.1848455     0.0017889
H           1.3223453    -0.0936396    -1.7241410
O           2.4276398    -1.2649857    -0.3889529
C           5.8099827     0.9403769     0.6716551
H           6.6980945     1.4960778     0.9576442
C           5.5639745    -0.3241947     1.2139337
H           6.2595401    -0.7572601     1.9276102
C           4.4217711    -1.0354056     0.8559029
H           4.2198904    -2.0189804     1.2703399
C           3.5221842    -0.4887822    -0.0664343
C           3.7559279     0.7771745    -0.6112550
H           3.0632844     1.2124891    -1.3230456
C           4.9024325     1.4831114    -0.2366477
H           5.0810081     2.4661246    -0.6641657
C          -2.1476161    -3.2943224    -0.8905698
H          -3.0095547    -3.9561541    -0.9067003
C          -1.2543208    -3.3595617     0.1757310
H          -1.3943502    -4.0609351     0.9923452
C          -0.1396690    -2.5154501     0.2090915
O           0.7027465    -2.6129084     1.2761137
H           1.5507641    -2.2063176     1.0129101
C           0.0797058    -1.5907214    -0.8318036
C          -0.8191524    -1.5605005    -1.9032046
H          -0.6441140    -0.8574980    -2.7150918
C          -1.9322678    -2.3989430    -1.9411102
H          -2.6199812    -2.3563269    -2.7803150
27
379_C13H12O2_0-3-10-8 (165,) energy =    -653.0446020
C           1.4786526    -1.5895387     0.3621946
H           2.2180202    -2.4030404     0.3097075
H           1.3286560    -1.3352083     1.4180588
O           2.0128994    -0.4511566    -0.3446954
C           5.8247671     1.0252943     0.4949806
H           6.8152980     1.4238701     0.6931809
C           5.1362843     1.3858234    -0.6678234
H           5.5908368     2.0673891    -1.3816727
C           3.8693494     0.8724762    -0.9260524
H           3.3225439     1.1456336    -1.8237722
C           3.2730598    -0.0047683    -0.0112642
C           3.9522434    -0.3749755     1.1531784
H           3.5071306    -1.0559221     1.8694155
C           5.2269335     0.1470278     1.3958156
H           5.7506715    -0.1431349     2.3027158
C          -2.2111080    -2.9651007    -1.3828513
H          -3.1301639    -3.3420637    -1.8237986
C          -1.1334370    -2.6543179    -2.2083697
H          -1.1892558    -2.7744255    -3.2857968
C           0.0548156    -2.1663724    -1.6553809
O           1.0824208    -1.8827949    -2.5051725
H           1.6955197    -1.2861205    -2.0348337
C           0.1689086    -1.9950942    -0.2610192
C          -0.9349496    -2.2924925     0.5449289
H          -0.8542585    -2.1477865     1.6203342
C          -2.1216175    -2.7795570    -0.0011175
H          -2.9656007    -3.0082131     0.6426375
27
379_C13H12O2_0-3-10-8 (180,) energy =    -653.0450273
C           1.4988284    -1.6221812     0.3289672
H           2.1889395    -2.4795185     0.3448864
H           1.3615141    -1.2779875     1.3609481
O           2.0962136    -0.5725678    -0.4568279
C           5.7806394     1.1004677     0.5568185
H           6.7374879     1.5530210     0.7995184
C           5.0603209     1.5270990    -0.5640259
H           5.4554416     2.3158982    -1.1984233
C           3.8345615     0.9498800    -0.8774658
H           3.2603434     1.2735484    -1.7403690
C           3.3158944    -0.0676076    -0.0658729
C           4.0253404    -0.5022101     1.0575268
H           3.6394458    -1.2883403     1.6958940
C           5.2567845     0.0896378     1.3587741
H           5.8048765    -0.2519819     2.2327972
C          -2.2436754    -2.9261713    -1.3570744
H          -3.1777423    -3.2852024    -1.7811169
C          -1.1411562    -2.7416979    -2.1877171
H          -1.1922107    -2.9434668    -3.2531100
C           0.0667709    -2.2781336    -1.6567788
O           1.1180823    -2.1208649    -2.5106297
H           1.7612743    -1.5240632    -2.0827394
C           0.1747446    -2.0040593    -0.2784814
C          -0.9523591    -2.1759266     0.5315386
H          -0.8748041    -1.9518880     1.5934512
C          -2.1587914    -2.6378249     0.0071425
H          -3.0211795    -2.7680796     0.6539317
