18
239_C7H8N2O_14-0-2-8 (-165,) energy =    -456.3064066
N           1.2730451    -0.8568830     0.0501565
H           1.4286601    -0.3987991     0.9410366
C           2.3424933    -0.8502188    -0.7887922
C           5.6723927     1.3123726     0.7048279
H           6.4990321     1.8711533     1.1330341
C           4.4850586     1.1539867     1.4225566
H           4.3759563     1.5873922     2.4150564
N           3.4308865     0.4779081     0.9555922
C           3.5297012    -0.0708967    -0.2658874
C           4.6729224     0.0315044    -1.0616510
H           4.6754485    -0.4413768    -2.0369762
C           5.7648326     0.7378142    -0.5630346
H           6.6724212     0.8391701    -1.1518976
O           2.3895036    -1.4295315    -1.8718273
C           0.1732217    -1.7882014    -0.1062137
H          -0.7884145    -1.2807028     0.0270263
H           0.2384566    -2.6127644     0.6161020
H           0.2249216    -2.1977936    -1.1163079
18
239_C7H8N2O_14-0-2-8 (-150,) energy =    -456.3037409
N           1.1683192    -0.7299879    -0.0437971
H           1.3492593    -0.2672537     0.8419310
C           2.2657924    -0.7629499    -0.8560334
C           5.6560958     1.2374572     0.7259761
H           6.4985799     1.7514736     1.1786612
C           4.4443993     1.1360673     1.4123998
H           4.3314826     1.5701450     2.4041343
N           3.3704119     0.5149294     0.9150905
C           3.4725941    -0.0330689    -0.3063662
C           4.6392410     0.0173160    -1.0732158
H           4.6436984    -0.4504830    -2.0509864
C           5.7521110     0.6649695    -0.5426986
H           6.6783953     0.7235577    -1.1077489
O           2.3274937    -1.3724902    -1.9201650
C           0.2076366    -1.8220352    -0.0450849
H          -0.7940917    -1.4498051     0.1914643
H           0.4778099    -2.5987573     0.6834689
H           0.1964420    -2.2628891    -1.0431530
18
239_C7H8N2O_14-0-2-8 (-135,) energy =    -456.2990749
N           1.0185079    -0.6480594    -0.0979328
H           1.2198271    -0.1501477     0.7658728
C           2.1251998    -0.6911987    -0.9106614
C           5.5986681     1.1082412     0.7330235
H           6.4626768     1.5683216     1.2028421
C           4.3737596     1.0685519     1.4020589
H           4.2715660     1.4980832     2.3969056
N           3.2736678     0.5139026     0.8836348
C           3.3613068    -0.0262474    -0.3424234
C           4.5391160    -0.0307508    -1.0944918
H           4.5312168    -0.4856712    -2.0782824
C           5.6795244     0.5458427    -0.5412869
H           6.6152733     0.5583354    -1.0934701
O           2.1774051    -1.3020275    -1.9726785
C           0.2128226    -1.8523497     0.0841293
H          -0.8021272    -1.5838747     0.3921236
H           0.6487510    -2.5200627     0.8401965
H           0.1622092    -2.3815379    -0.8690019
18
239_C7H8N2O_14-0-2-8 (-120,) energy =    -456.2927940
N           0.9488508    -0.6003367    -0.2204430
H           1.1344918    -0.0443672     0.6128392
C           2.0837848    -0.6234564    -1.0123621
C           5.5642589     1.0258261     0.7694148
H           6.4286229     1.4451709     1.2753212
C           4.3173304     1.0205528     1.3975655
H           4.1980134     1.4377868     2.3957053
N           3.2154183     0.5153380     0.8341329
C           3.3237559    -0.0078960    -0.3975804
C           4.5247664    -0.0406077    -1.1123708
H           4.5331747    -0.4768940    -2.1045492
C           5.6666152     0.4830966    -0.5120266
H           6.6197708     0.4711051    -1.0335808
O           2.1535021    -1.2159516    -2.0813031
C           0.3327855    -1.8823394     0.1351713
H          -0.6760046    -1.7110846     0.5216604
H           0.9181868    -2.4213424     0.8934516
H           0.2604791    -2.4997687    -0.7624040
18
239_C7H8N2O_14-0-2-8 (-105,) energy =    -456.2857375
N           0.8924743    -0.5341662    -0.3414829
H           1.0503877     0.0910930     0.4492870
C           2.0578192    -0.5299827    -1.1129194
C           5.5313038     0.9660149     0.8121248
H           6.3915129     1.3460689     1.3548200
C           4.2642342     0.9911804     1.3983985
H           4.1255930     1.3937393     2.4000509
N           3.1656655     0.5343278     0.7890981
C           3.2982092     0.0311952    -0.4488581
C           4.5212786    -0.0273123    -1.1244660
H           4.5489843    -0.4430369    -2.1250932
C           5.6591413     0.4451860    -0.4761323
H           6.6284353     0.4110395    -0.9659911
O           2.1398986    -1.0807913    -2.1999852
C           0.4799559    -1.8442956     0.1885249
H          -0.5059974    -1.7483132     0.6516984
H           1.1874421    -2.2343740     0.9345140
H           0.4050170    -2.5562924    -0.6365947
18
239_C7H8N2O_14-0-2-8 (-90,) energy =    -456.2788979
N           0.8274742    -0.5267649    -0.4441533
H           0.9302072     0.1782547     0.2884837
C           2.0194057    -0.4814445    -1.2012237
C           5.4786324     0.8835746     0.8429182
H           6.3328719     1.2323109     1.4152871
C           4.1983653     0.9203426     1.3994905
H           4.0437674     1.3009852     2.4073714
N           3.1055289     0.5019463     0.7533671
C           3.2582711     0.0272691    -0.4938932
C           4.4964624    -0.0400583    -1.1415347
H           4.5412281    -0.4296796    -2.1520768
C           5.6275254     0.3924024    -0.4546746
H           6.6075303     0.3505640    -0.9220709
O           2.1062259    -0.9611529    -2.3175085
C           0.6254488    -1.8091056     0.2624451
H          -0.3394106    -1.7752930     0.7759086
H           1.4138887    -2.0183821     1.0000434
H           0.5954968    -2.6219129    -0.4679728
18
239_C7H8N2O_14-0-2-8 (-75,) energy =    -456.2849478
N           0.8443513    -0.4545394    -0.3966678
H           0.0999160    -0.4796050    -1.0940618
C           2.0273456    -0.5265720    -1.1400302
C           5.6158526     0.6849061     0.7670818
H           6.5067343     1.0116799     1.2951342
C           4.4211182     0.4789157     1.4618723
H           4.3751106     0.6388966     2.5378622
N           3.2857291     0.0862210     0.8785045
C           3.3062394    -0.1209552    -0.4479220
C           4.4560763     0.0389616    -1.2295720
H           4.3991350    -0.1553291    -2.2942288
C           5.6300227     0.4571637    -0.6082705
H           6.5389149     0.6014084    -1.1860330
O           2.0099089    -0.6836733    -2.3549512
C           0.5597939    -1.4721310     0.6314619
H           0.4960834    -2.4856530     0.2110691
H          -0.3944029    -1.2276537     1.1067427
H           1.3409879    -1.4408343     1.3918493
18
239_C7H8N2O_14-0-2-8 (-60,) energy =    -456.2895851
N           0.8230623    -0.5299154    -0.4635621
H           0.0695446    -0.6180154    -1.1427606
C           2.0005406    -0.4544691    -1.1915858
C           5.5974345     0.6408063     0.7789720
H           6.4913770     0.9379742     1.3191602
C           4.3884082     0.4723487     1.4575322
H           4.3321390     0.6360730     2.5324419
N           3.2494691     0.1113238     0.8594819
C           3.2781737    -0.0956524    -0.4664402
C           4.4417048     0.0388608    -1.2333721
H           4.3884891    -0.1417423    -2.3004722
C           5.6210322     0.4159765    -0.5969236
H           6.5407091     0.5335852    -1.1635925
O           1.9896586    -0.4866146    -2.4186466
C           0.6249770    -1.4562443     0.6601047
H           0.6480639    -2.5079241     0.3411642
H          -0.3503805    -1.2497204     1.1102090
H           1.3962700    -1.2835641     1.4092297
18
239_C7H8N2O_14-0-2-8 (-45,) energy =    -456.2923545
N           0.8108965    -0.6183319    -0.5320671
H           0.0659494    -0.7567239    -1.2095848
C           1.9772365    -0.4002053    -1.2314897
C           5.5850134     0.6006340     0.7759662
H           6.4836143     0.8726653     1.3216463
C           4.3683583     0.4617950     1.4461757
H           4.3088904     0.6273020     2.5205983
N           3.2246129     0.1275721     0.8405370
C           3.2542634    -0.0778407    -0.4853623
C           4.4247437     0.0381011    -1.2457458
H           4.3723367    -0.1290290    -2.3149794
C           5.6095851     0.3806772    -0.6008611
H           6.5347432     0.4779932    -1.1624052
O           1.9677153    -0.3325820    -2.4590800
C           0.6561472    -1.4397007     0.6716766
H           0.7817038    -2.5114987     0.4612855
H          -0.3506241    -1.2807479     1.0690986
H           1.3824587    -1.1268784     1.4186412
18
239_C7H8N2O_14-0-2-8 (-30,) energy =    -456.2936219
N           0.8245528    -0.7169859    -0.5731080
H           0.0864451    -0.8835769    -1.2492593
C           1.9724008    -0.3765538    -1.2399238
C           5.5885382     0.5701562     0.7840936
H           6.4904923     0.8256125     1.3322146
C           4.3751026     0.4189753     1.4562795
H           4.3199857     0.5597833     2.5344367
N           3.2276526     0.1011387     0.8479971
C           3.2488124    -0.0728577    -0.4823446
C           4.4159103     0.0642233    -1.2453084
H           4.3563048    -0.0721121    -2.3183736
C           5.6051215     0.3856205    -0.5982575
H           6.5274627     0.4950432    -1.1622390
O           1.9618833    -0.2389550    -2.4632371
C           0.6609572    -1.4086812     0.7039478
H           0.8646135    -2.4859733     0.6197545
H          -0.3742334    -1.2790216     1.0337450
H           1.3283660    -0.9724382     1.4428828
18
239_C7H8N2O_14-0-2-8 (-15,) energy =    -456.2944131
N           0.9171992    -0.9345934    -0.7186248
H           0.2089856    -1.1761898    -1.4003038
C           2.0630862    -0.5428690    -1.3512075
C           5.5070261     0.6389439     0.8321891
H           6.3651768     0.9431306     1.4240913
C           4.2983986     0.3253036     1.4545616
H           4.2033593     0.3840840     2.5376623
N           3.2029189    -0.0579413     0.7899985
C           3.2773553    -0.1391018    -0.5465791
C           4.4441178     0.1580078    -1.2631377
H           4.4264406     0.0782450    -2.3434427
C           5.5772623     0.5513608    -0.5585836
H           6.4988654     0.7875973    -1.0836272
O           2.1038261    -0.4792526    -2.5807699
C           0.6571079    -1.3310178     0.6630435
H          -0.3407950    -1.7782378     0.6881834
H           0.6836368    -0.4768986     1.3420616
H           1.3802795    -2.0691053     1.0221392
18
239_C7H8N2O_14-0-2-8 (0,) energy =    -456.2946157
N           0.9717152    -1.0653645    -0.7317315
H           0.2621362    -1.3010773    -1.4135727
C           2.0976936    -0.6116725    -1.3557030
C           5.5212151     0.6254224     0.8310415
H           6.3766077     0.9367587     1.4232251
C           4.3457317     0.2091275     1.4562689
H           4.2744119     0.1930502     2.5426670
N           3.2553821    -0.1875755     0.7909538
C           3.3018605    -0.1813009    -0.5492197
C           4.4350337     0.2210131    -1.2687594
H           4.3974024     0.2027779    -2.3512699
C           5.5623321     0.6296052    -0.5637015
H           6.4577940     0.9467311    -1.0913600
O           2.1420400    -0.5514584    -2.5857597
C           0.6250783    -1.2501793     0.6739051
H          -0.3758966    -1.6905032     0.7022780
H           0.6123588    -0.3048383     1.2226580
H           1.3216205    -1.9217687     1.1803797
18
239_C7H8N2O_14-0-2-8 (15,) energy =    -456.2944170
N           1.0206762    -1.2304795    -0.7205560
H           0.3285700    -1.5192904    -1.4003408
C           2.1350139    -0.7586203    -1.3543739
C           5.5089641     0.6093341     0.8291895
H           6.3571104     0.9406875     1.4209331
C           4.4075532     0.0171036     1.4478199
H           4.3886636    -0.1201695     2.5278142
N           3.3292219    -0.4121457     0.7832808
C           3.3155919    -0.2651872    -0.5497099
C           4.3739552     0.3132313    -1.2626157
H           4.2961375     0.3891818    -2.3405512
C           5.4871802     0.7595514    -0.5578304
H           6.3245830     1.2145556    -1.0798959
O           2.2018468    -0.7662948    -2.5843772
C           0.5716132    -1.1190826     0.6648656
H          -0.4829016    -1.4089762     0.6875341
H           0.6613424    -0.0971708     1.0434711
H           1.1371878    -1.7746090     1.3302131
18
239_C7H8N2O_14-0-2-8 (30,) energy =    -456.2936219
N           1.3437611    -1.8461813     0.1121651
H           0.9563605    -2.7571969    -0.1107864
C           2.6127166    -1.7634308    -0.3987135
C           5.0516825     1.6816415     0.1035597
H           5.6558961     2.5690567     0.2667650
C           3.8456504     1.5157180     0.7855213
H           3.5014023     2.2709851     1.4900441
N           3.0491828     0.4529696     0.6310086
C           3.4400351    -0.5066257    -0.2216009
C           4.6369793    -0.4338969    -0.9462096
H           4.8993585    -1.2543304    -1.6032143
C           5.4517063     0.6822889    -0.7832879
H           6.3842548     0.7692742    -1.3342403
O           3.1268410    -2.7397581    -0.9446080
C           0.3565125    -0.7899976     0.3263928
H          -0.1046847    -0.4579788    -0.6149804
H           0.8301297     0.0581119     0.8144138
H          -0.4314548    -1.1839622     0.9753126
18
239_C7H8N2O_14-0-2-8 (45,) energy =    -456.2923545
N           1.3776017    -1.8481582     0.2144115
H           1.0024707    -2.7714860     0.0147341
C           2.5991541    -1.7480677    -0.4140084
C           5.0701235     1.6655410     0.1237606
H           5.6826187     2.5448625     0.2995292
C           3.8697950     1.4930413     0.8152528
H           3.5383885     2.2365552     1.5382116
N           3.0653379     0.4387013     0.6483028
C           3.4420978    -0.5044292    -0.2289878
C           4.6280263    -0.4223140    -0.9695818
H           4.8759696    -1.2276738    -1.6506536
C           5.4529309     0.6842074    -0.7900668
H           6.3794592     0.7778227    -1.3499781
O           3.0740764    -2.7091590    -1.0159999
C           0.3462794    -0.8095655     0.2871601
H          -0.1225438    -0.6216285    -0.6893972
H           0.7863371     0.1111464     0.6639637
H          -0.4281821    -1.1425259     0.9844013
18
239_C7H8N2O_14-0-2-8 (60,) energy =    -456.2895851
N           1.4141055    -1.8112394     0.3142260
H           1.0631992    -2.7538009     0.1551544
C           2.5694414    -1.6898848    -0.4425023
C           5.1017967     1.6649063     0.1515739
H           5.7278039     2.5308375     0.3452829
C           3.8864128     1.5108876     0.8221607
H           3.5560802     2.2571239     1.5428648
N           3.0668090     0.4720539     0.6370669
C           3.4419690    -0.4712543    -0.2410887
C           4.6362489    -0.4030123    -0.9684961
H           4.8748592    -1.2037713    -1.6584251
C           5.4806795     0.6849552    -0.7651255
H           6.4171248     0.7662137    -1.3103029
O           2.9840808    -2.6258349    -1.1199250
C           0.3181748    -0.8326254     0.2795723
H          -0.1735257    -0.7934536    -0.7027630
H           0.7068438     0.1522438     0.5342657
H          -0.4244160    -1.1189082     1.0300183
18
239_C7H8N2O_14-0-2-8 (75,) energy =    -456.2849478
N           1.4500385    -1.7668126     0.3999273
H           1.1495724    -2.7340405     0.2759875
C           2.5274906    -1.6161582    -0.4796478
C           5.1454783     1.6554326     0.1722509
H           5.7911871     2.5026982     0.3831815
C           3.9123179     1.5318864     0.8177026
H           3.5867749     2.2859811     1.5324249
N           3.0712259     0.5144825     0.6149976
C           3.4405428    -0.4340105    -0.2606256
C           4.6452994    -0.3916263    -0.9715685
H           4.8722357    -1.1892193    -1.6693009
C           5.5156450     0.6710618    -0.7429823
H           6.4640901     0.7306390    -1.2698631
O           2.8590031    -2.5147208    -1.2436521
C           0.2720877    -0.8890342     0.2756156
H          -0.2230593    -0.9885444    -0.7005724
H           0.5800730     0.1464991     0.4247748
H          -0.4418239    -1.1532666     1.0608951
18
239_C7H8N2O_14-0-2-8 (90,) energy =    -456.2788979
N           1.4121662    -1.7945993     0.3254277
H           1.6403067    -1.3543920     1.2190346
C           2.5705180    -1.6791686    -0.4750757
C           5.1370018     1.5812898     0.4140744
H           5.7533629     2.4351083     0.6787269
C           4.0357498     1.2393444     1.2018090
H           3.7871824     1.8206197     2.0877810
N           3.2326772     0.2057548     0.9305353
C           3.5103297    -0.5354806    -0.1547222
C           4.5959192    -0.2802116    -0.9993662
H           4.7609488    -0.9262474    -1.8540043
C           5.4202241     0.8035355    -0.7093362
H           6.2699675     1.0371848    -1.3449180
O           2.7505379    -2.3580349    -1.4703059
C           0.2525299    -1.0459036    -0.2029569
H          -0.6076142    -1.2333427     0.4457035
H           0.0121837    -1.4137378    -1.2039537
H           0.4314008     0.0380931    -0.2523585
18
239_C7H8N2O_14-0-2-8 (105,) energy =    -456.2857375
N           1.4176933    -1.6757699     0.3512831
H           1.6174377    -1.1380564     1.1951850
C           2.5376711    -1.5765124    -0.4787463
C           5.2348939     1.5678361     0.4415608
H           5.8848042     2.3944897     0.7120771
C           4.1255919     1.2594084     1.2315805
H           3.9036936     1.8397325     2.1252076
N           3.2823611     0.2604078     0.9527011
C           3.5252325    -0.4784187    -0.1420188
C           4.6152112    -0.2557730    -0.9894528
H           4.7489878    -0.8976120    -1.8525864
C           5.4819833     0.7923076    -0.6918917
H           6.3366512     1.0004627    -1.3297551
O           2.6616274    -2.2176405    -1.5109430
C           0.1534139    -1.1795161    -0.2169146
H          -0.6670009    -1.4338355     0.4599062
H          -0.0255447    -1.6721187    -1.1754004
H           0.1637791    -0.0907348    -0.3706749
18
239_C7H8N2O_14-0-2-8 (120,) energy =    -456.2927940
N           1.3755679    -1.5329503     0.3452048
H           1.5389403    -0.9285850     1.1489312
C           2.4648296    -1.4603757    -0.5056699
C           5.3094466     1.5393903     0.4525053
H           5.9988512     2.3303367     0.7318645
C           4.1815638     1.2826336     1.2344194
H           3.9836243     1.8679862     2.1304027
N           3.2907575     0.3290903     0.9443705
C           3.5020424    -0.4141136    -0.1536413
C           4.6055011    -0.2410212    -0.9943791
H           4.7100523    -0.8826028    -1.8617170
C           5.5227713     0.7596368    -0.6848612
H           6.3903297     0.9283687    -1.3169547
O           2.5486642    -2.0843182    -1.5555335
C           0.0440075    -1.2976670    -0.2214686
H          -0.7206826    -1.6433099     0.4800579
H          -0.0509671    -1.8683542    -1.1474194
H          -0.1262544    -0.2336457    -0.4384428
18
239_C7H8N2O_14-0-2-8 (135,) energy =    -456.2990748
N           1.3533105    -1.3858874     0.3492779
H           1.4826243    -0.7340463     1.1193367
C           2.4178144    -1.3408105    -0.5178729
C           5.3960978     1.5108136     0.4835065
H           6.1223975     2.2635334     0.7747403
C           4.2489834     1.3072200     1.2530862
H           4.0718431     1.8970702     2.1505044
N           3.3139917     0.4018109     0.9487337
C           3.4982718    -0.3450553    -0.1516785
C           4.6151324    -0.2214997    -0.9824742
H           4.6939560    -0.8615424    -1.8536781
C           5.5796544     0.7287396    -0.6572671
H           6.4602025     0.8574355    -1.2807713
O           2.4756266    -1.9651106    -1.5717354
C          -0.0064516    -1.4153776    -0.1824714
H          -0.6896827    -1.8496539     0.5535065
H          -0.0135359    -2.0381784    -1.0786475
H          -0.3599623    -0.4085647    -0.4448991
18
239_C7H8N2O_14-0-2-8 (150,) energy =    -456.3037409
N           1.3932186    -1.2348346     0.2616566
H           1.4791148    -0.5692891     1.0239212
C           2.4569476    -1.1975011    -0.5941204
C           5.5165515     1.5063204     0.5576902
H           6.2654258     2.2194113     0.8887544
C           4.3361583     1.3395717     1.2846959
H           4.1552050     1.9195554     2.1877928
N           3.3729767     0.4827765     0.9314819
C           3.5614426    -0.2499082    -0.1777216
C           4.7080891    -0.1582227    -0.9704733
H           4.7858274    -0.7831167    -1.8527136
C           5.7030781     0.7401777    -0.5932794
H           6.6087231     0.8416764    -1.1850792
O           2.5231458    -1.8181893    -1.6515155
C           0.0542295    -1.5249309    -0.2266393
H          -0.5323164    -2.0324989     0.5455714
H           0.1440773    -2.1813835    -1.0935962
H          -0.4734092    -0.6093615    -0.5273228
18
239_C7H8N2O_14-0-2-8 (165,) energy =    -456.3064066
N           1.3597003    -1.0685238     0.1772215
H           1.4228139    -0.4129111     0.9478656
C           2.4363044    -1.0783372    -0.6524667
C           5.5802932     1.4806057     0.5977196
H           6.3529433     2.1542056     0.9557698
C           4.3725014     1.3667825     1.2892220
H           4.1938155     1.9497919     2.1908702
N           3.3801143     0.5589878     0.9030970
C           3.5656340    -0.1754677    -0.2055666
C           4.7365925    -0.1330664    -0.9656781
H           4.8091134    -0.7558495    -1.8498522
C           5.7626858     0.7135334    -0.5531514
H           6.6887612     0.7748529    -1.1182830
O           2.5165635    -1.7298073    -1.6916764
C           0.0714519    -1.6006507    -0.2211772
H          -0.3690222    -2.1977010     0.5847948
H           0.2295254    -2.2376259    -1.0929469
H          -0.6298501    -0.7989985    -0.4883114
18
239_C7H8N2O_14-0-2-8 (180,) energy =    -456.3071961
N           1.3578792    -1.0186065     0.1436512
H           1.4872822    -0.5268911     1.0195949
C           2.3910415    -0.9471949    -0.7322771
C           5.6559294     1.3631142     0.6793858
H           6.4641619     1.9634526     1.0859142
C           4.4904910     1.1609705     1.4217152
H           4.3804487     1.6012278     2.4111254
N           3.4586459     0.4338931     0.9824808
C           3.5594176    -0.1243217    -0.2346077
C           4.6820954     0.0177327    -1.0529934
H           4.6866644    -0.4649268    -2.0235031
C           5.7505355     0.7779102    -0.5834264
H           6.6416940     0.9121178    -1.1905560
O           2.4151643    -1.4847856    -1.8379972
C           0.1414120    -1.7538780    -0.1309042
H          -0.7391292    -1.1121646    -0.0098432
H           0.0366259    -2.6210990     0.5334373
H           0.1922517    -2.1041042    -1.1631947
