20
194_C7H9NO2S_0-6-11-12 (-165,) energy =    -875.4770511
C           0.3551664     0.0285386    -1.1597288
H           0.6404980     0.0071648    -2.2064780
C          -0.9745335     0.2123280    -0.7860037
H          -1.7335737     0.3510511    -1.5504662
C          -1.3300163     0.2141457     0.5654151
H          -2.3685313     0.3541713     0.8523177
C           1.3227603    -0.1546482    -0.1667495
C          -0.3541054     0.0374810     1.5473365
H          -0.6306746     0.0409420     2.5978848
C           0.9833402    -0.1377310     1.1869358
H           1.7558950    -0.2638541     1.9367510
S           3.0300354    -0.2624150    -0.7139769
N           3.8238022    -0.8942550     0.6418223
H           4.6870537    -0.3632722     0.7391578
C           4.0081541    -2.3518877     0.6926073
H           4.5770853    -2.7486438    -0.1555171
H           3.0289281    -2.8366244     0.7138337
H           4.5249057    -2.5881871     1.6268962
O           3.0637300    -1.2099110    -1.8350911
O           3.5789596     1.0899961    -0.8702618
20
194_C7H9NO2S_0-6-11-12 (-150,) energy =    -875.4783332
C           0.3819575    -0.1075366    -1.1262414
H           0.6802558    -0.2335557    -2.1615338
C          -0.9609527     0.0234772    -0.7731579
H          -1.7238195     0.0124889    -1.5462928
C          -1.3227036     0.1636867     0.5683272
H          -2.3702298     0.2617147     0.8396292
C           1.3522234    -0.0986218    -0.1212506
C          -0.3422613     0.1770270     1.5633843
H          -0.6254359     0.2854933     2.6065136
C           1.0048175     0.0549975     1.2230217
H           1.7784522     0.0639752     1.9826773
S           3.0738510    -0.1346083    -0.6300277
N           3.8138661    -0.9438648     0.6610308
H           4.7165816    -0.4932755     0.8007800
C           3.8861026    -2.4094068     0.5768387
H           4.4190879    -2.7686561    -0.3107149
H           2.8717144    -2.8167933     0.5662535
H           4.3866456    -2.7698807     1.4796607
O           3.1409116    -0.9258394    -1.8657514
O           3.6372415     1.2198087    -0.5849340
20
194_C7H9NO2S_0-6-11-12 (-135,) energy =    -875.4790756
C           0.4319867    -0.2403665    -1.0806123
H           0.7546962    -0.4636118    -2.0916598
C          -0.9213965    -0.1579160    -0.7484790
H          -1.6733629    -0.3135673    -1.5166885
C          -1.3050579     0.1221331     0.5638869
H          -2.3595054     0.1839611     0.8186537
C           1.3861361    -0.0429893    -0.0817769
C          -0.3381976     0.3234659     1.5536575
H          -0.6390148     0.5416937     2.5743763
C           1.0159865     0.2482077     1.2341521
H           1.7783578     0.3992905     1.9907407
S           3.1202420    -0.0443666    -0.5455267
N           3.8034434    -1.0130798     0.6656971
H           4.7282606    -0.6289314     0.8535058
C           3.7989135    -2.4646997     0.4387687
H           4.3235149    -2.7648846    -0.4755844
H           2.7640384    -2.8129883     0.3813769
H           4.2672479    -2.9386050     1.3057301
O           3.2171066    -0.6875054    -1.8628392
O           3.6982980     1.2850568    -0.3198109
20
194_C7H9NO2S_0-6-11-12 (-120,) energy =    -875.4793758
C           0.4764845    -0.3600117    -1.0058991
H           0.8267521    -0.6736094    -1.9832092
C          -0.8845906    -0.3204332    -0.6951381
H          -1.6157312    -0.6124776    -1.4434774
C          -1.3019128     0.0952770     0.5696971
H          -2.3616987     0.1251164     0.8074976
C           1.4016744     0.0176927    -0.0332250
C          -0.3626271     0.4773881     1.5331903
H          -0.6911163     0.8045710     2.5155031
C           0.9975114     0.4439062     1.2350814
H           1.7380921     0.7413781     1.9699284
S           3.1479519     0.0242341    -0.4473512
N           3.7767277    -1.0863411     0.6693693
H           4.7049681    -0.7486717     0.9200075
C           3.7456022    -2.5041972     0.2870094
H           4.2874162    -2.7186013    -0.6414592
H           2.7048418    -2.8181833     0.1682193
H           4.1795971    -3.0798879     1.1090359
O           3.2722939    -0.4791824    -1.8218217
O           3.7392271     1.3088331    -0.0580536
20
194_C7H9NO2S_0-6-11-12 (-105,) energy =    -875.4793841
C           0.5294447    -0.4780821    -0.9091488
H           0.9080653    -0.8816208    -1.8420049
C          -0.8369260    -0.4708244    -0.6203247
H          -1.5403931    -0.8892630    -1.3344491
C          -1.2959979     0.0787379     0.5774457
H          -2.3600460     0.0846911     0.7973230
C           1.4179148     0.0667047     0.0181044
C          -0.3939328     0.6288142     1.4936282
H          -0.7558002     1.0637143     2.4208909
C           0.9717063     0.6262015     1.2181459
H           1.6847334     1.0585134     1.9121208
S           3.1756929     0.0672731    -0.3425356
N           3.7475292    -1.1727391     0.6645972
H           4.6719407    -0.8836292     0.9814932
C           3.7048413    -2.5395173     0.1297375
H           4.2673081    -2.6627301    -0.8030529
H           2.6626921    -2.8206186    -0.0465301
H           4.1082891    -3.2079698     0.8951598
O           3.3324941    -0.2964370    -1.7570252
O           3.7781096     1.2894900     0.1998002
20
194_C7H9NO2S_0-6-11-12 (-90,) energy =    -875.4789640
C           0.5541850    -0.5879030    -0.7805069
H           0.9585408    -1.0878047    -1.6542416
C          -0.8161520    -0.5924482    -0.5161599
H          -1.4908908    -1.1246531    -1.1805801
C          -1.3180245     0.0942121     0.5911962
H          -2.3861142     0.0917140     0.7904114
C           1.4059079     0.1068825     0.0804403
C          -0.4539903     0.7922687     1.4391790
H          -0.8488138     1.3341711     2.2937964
C           0.9177410     0.7995969     1.1899127
H           1.6047118     1.3417431     1.8307839
S           3.1733302     0.0905173    -0.2259950
N           3.6922917    -1.2652522     0.6523238
H           4.5851892    -1.0128520     1.0726918
C           3.7041446    -2.5584250    -0.0419108
H           4.2944164    -2.5545354    -0.9653928
H           2.6763596    -2.8473390    -0.2793657
H           4.1088265    -3.3007235     0.6513757
O           3.3626332    -0.1343223    -1.6648267
O           3.7836889     1.2348534     0.4587314
20
194_C7H9NO2S_0-6-11-12 (-75,) energy =    -875.4778219
C           0.8668793     0.4840162     1.1132612
H           1.6917297     0.8715085     1.7017819
C          -0.3326446     1.1840448     1.0051087
H          -0.4473546     2.1379353     1.5118750
C          -1.3870971     0.6577219     0.2522283
H          -2.3207944     1.2076990     0.1729016
C           0.9944052    -0.7421549     0.4556978
C          -1.2485878    -0.5730187    -0.3909366
H          -2.0725703    -0.9842252    -0.9670053
C          -0.0517015    -1.2851991    -0.2899046
H           0.0735537    -2.2514929    -0.7664823
S           2.5286550    -1.6591619     0.6088720
N           3.5495602    -0.7548987    -0.4108003
H           3.3353623    -1.0126057    -1.3739962
C           4.9903310    -0.8598694    -0.1191656
H           5.3999320    -1.8662490    -0.2754984
H           5.1563981    -0.5657002     0.9176813
H           5.5087623    -0.1544658    -0.7744574
O           3.0618337    -1.4867153     1.9634475
O           2.2978360    -3.0023900     0.0570944
20
194_C7H9NO2S_0-6-11-12 (-60,) energy =    -875.4777471
C           0.9218512     0.5239140     0.9407736
H           1.8022101     0.9573508     1.4031116
C          -0.2785417     1.2282203     0.8836828
H          -0.3386767     2.2261250     1.3085192
C          -1.4028240     0.6518515     0.2836408
H          -2.3365830     1.2059475     0.2429032
C           0.9809835    -0.7573701     0.3854077
C          -1.3309622    -0.6306259    -0.2613536
H          -2.2059762    -1.0774031    -0.7246059
C          -0.1327025    -1.3461995    -0.2128212
H          -0.0513231    -2.3446704    -0.6283221
S           2.5033945    -1.7010039     0.4953916
N           3.5739937    -0.6694753    -0.3320533
H           3.4010108    -0.7746892    -1.3315934
C           4.9994997    -0.8358937     0.0029782
H           5.4077815    -1.8136304    -0.2837464
H           5.1208634    -0.7015308     1.0783072
H           5.5520154    -0.0486676    -0.5173411
O           2.9717999    -1.7264444     1.8843759
O           2.2979696    -2.9562063    -0.2427102
20
194_C7H9NO2S_0-6-11-12 (-45,) energy =    -875.4772972
C           0.9841764     0.5677530     0.7778415
H           1.9070824     1.0378426     1.0987156
C          -0.2197103     1.2703368     0.7838622
H          -0.2382245     2.3026472     1.1214885
C          -1.3973964     0.6506252     0.3563035
H          -2.3325966     1.2036979     0.3633156
C           0.9917964    -0.7574467     0.3346850
C          -1.3755525    -0.6737112    -0.0843060
H          -2.2901887    -1.1532164    -0.4210124
C          -0.1759533    -1.3865889    -0.1000035
H          -0.1333244    -2.4116497    -0.4516756
S           2.5040846    -1.7236247     0.3776739
N           3.6205673    -0.6065341    -0.2541242
H           3.5198620    -0.6041879    -1.2688819
C           5.0205338    -0.8023471     0.1629784
H           5.4597649    -1.7404681    -0.1996993
H           5.0639061    -0.7880441     1.2522876
H           5.5986607     0.0399305    -0.2271324
O           2.9132532    -1.9529732     1.7671066
O           2.3190076    -2.8621537    -0.5342645
20
194_C7H9NO2S_0-6-11-12 (-30,) energy =    -875.4764187
C           1.0144854     0.5606951     0.5677930
H           1.9670193     1.0455891     0.7477435
C          -0.1844377     1.2682960     0.6617263
H          -0.1662051     2.3220539     0.9251517
C          -1.4006218     0.6279248     0.4148710
H          -2.3308728     1.1843287     0.4892695
C           0.9768613    -0.7916141     0.2223745
C          -1.4237724    -0.7239883     0.0648486
H          -2.3691738    -1.2198148    -0.1356510
C          -0.2325929    -1.4410843    -0.0395280
H          -0.2325373    -2.4852912    -0.3333505
S           2.4727423    -1.7836283     0.1427941
N           3.6389069    -0.6292232    -0.2947929
H           3.6553812    -0.5703175    -1.3119426
C           4.9826859    -0.8092571     0.2811802
H           5.4901619    -1.7189377    -0.0633479
H           4.8967162    -0.8440793     1.3672164
H           5.5777777     0.0637081    -0.0015060
O           2.8347994    -2.2392177     1.4892777
O           2.2834931    -2.7578594    -0.9413436
20
194_C7H9NO2S_0-6-11-12 (-15,) energy =    -875.4755424
C           1.0668659     0.5919245     0.3864534
H           2.0261077     1.0955467     0.4137991
C          -0.1237047     1.2925814     0.5915641
H          -0.0897517     2.3602485     0.7893800
C          -1.3493092     0.6279472     0.5385086
H          -2.2727190     1.1777678     0.6980257
C           1.0108677    -0.7778145     0.1297528
C          -1.3920835    -0.7435631     0.2732854
H          -2.3464135    -1.2599323     0.2238098
C          -0.2120448    -1.4537098     0.0631546
H          -0.2370710    -2.5152314    -0.1611130
S           2.4910399    -1.7699537    -0.1058030
N           3.7039936    -0.6142877    -0.3616043
H           3.9251234    -0.6200190    -1.3550750
C           4.8941793    -0.6818676     0.5010849
H           5.4931875    -1.5878608     0.3514616
H           4.5813876    -0.6424106     1.5447529
H           5.5065934     0.1977538     0.2827181
O           2.7931503    -2.4597559     1.1531148
O           2.3106272    -2.5273585    -1.3509751
20
194_C7H9NO2S_0-6-11-12 (0,) energy =    -875.4757040
C           1.1641530     0.5582812     0.1770018
H           2.1086291     1.0735468     0.0465957
C          -0.0012321     1.2560806     0.5035865
H           0.0403889     2.3327112     0.6426749
C          -1.2107857     0.5766412     0.6477996
H          -2.1143752     1.1245163     0.9002542
C           1.0987130    -0.8232120    -0.0018351
C          -1.2626440    -0.8087746     0.4684030
H          -2.2038531    -1.3390103     0.5814774
C          -0.1070092    -1.5171210     0.1482674
H          -0.1386029    -2.5941175     0.0168817
S           2.5466537    -1.8119698    -0.3962901
N           3.7995365    -0.6752907    -0.4628852
H           4.2550607    -0.8004351    -1.3642539
C           4.7287710    -0.6253059     0.6757777
H           5.2567238    -1.5691730     0.8502422
H           4.1766395    -0.3645686     1.5812353
H           5.4525828     0.1693701     0.4742789
O           2.7666959    -2.7318714     0.7256451
O           2.4020107    -2.3245143    -1.7643207
20
194_C7H9NO2S_0-6-11-12 (15,) energy =    -875.4768382
C           1.1291726     0.5627101    -0.0351963
H           2.0433804     1.0838049    -0.2949129
C          -0.0099038     1.2590446     0.3744345
H           0.0197810     2.3429324     0.4415199
C          -1.1787693     0.5682558     0.6963151
H          -2.0622053     1.1156155     1.0130803
C           1.0785077    -0.8293961    -0.1163797
C          -1.2138485    -0.8267709     0.6185564
H          -2.1207785    -1.3658288     0.8768435
C          -0.0815582    -1.5343024     0.2206852
H          -0.0901006    -2.6187005     0.1816952
S           2.4907930    -1.8052613    -0.6473085
N           3.7756860    -0.7072918    -0.5405676
H           4.3232361    -0.8281832    -1.3903552
C           4.5741860    -0.7259353     0.6938892
H           5.0302434    -1.6998947     0.9027534
H           3.9369540    -0.4504010     1.5378305
H           5.3545790     0.0335501     0.5943349
O           2.6498320    -2.8930135     0.3257209
O           2.3700823    -2.1034269    -2.0796632
20
194_C7H9NO2S_0-6-11-12 (30,) energy =    -875.4780689
C           1.0766390     0.6026488    -0.2084562
H           1.9428432     1.1373126    -0.5815115
C          -0.0519213     1.2842273     0.2483508
H          -0.0672809     2.3702826     0.2296188
C          -1.1549617     0.5751509     0.7287821
H          -2.0310520     1.1117448     1.0823445
C           1.0838100    -0.7933171    -0.1738376
C          -1.1324419    -0.8210716     0.7633225
H          -1.9869063    -1.3722972     1.1452754
C          -0.0076590    -1.5141891     0.3177904
H           0.0362357    -2.5972009     0.3608495
S           2.4813247    -1.7335995    -0.7980627
N           3.7803263    -0.6831456    -0.5180642
H           4.3998557    -0.7765303    -1.3210631
C           4.4635953    -0.7960578     0.7784648
H           4.8720821    -1.7947163     0.9696663
H           3.7594297    -0.5460778     1.5763490
H           5.2699395    -0.0577002     0.7942219
O           2.5869863    -2.9433389     0.0279890
O           2.4026051    -1.8393162    -2.2598443
20
194_C7H9NO2S_0-6-11-12 (45,) energy =    -875.4789437
C           1.0329390     0.6070370    -0.3716419
H           1.8305890     1.1513921    -0.8651872
C          -0.0942560     1.2673610     0.1145079
H          -0.1812587     2.3435441    -0.0049670
C          -1.1079316     0.5482402     0.7542866
H          -1.9842145     1.0687280     1.1308218
C           1.1313379    -0.7766894    -0.2037063
C          -0.9967670    -0.8339112     0.9150980
H          -1.7833425    -1.3906509     1.4162827
C           0.1293053    -1.5062532     0.4378267
H           0.2432001    -2.5774414     0.5634677
S           2.5340700    -1.6718728    -0.8788663
N           3.8317896    -0.6795621    -0.4282010
H           4.5082826    -0.7297823    -1.1883721
C           4.4145864    -0.9079863     0.9011269
H           4.7904150    -1.9277307     1.0428613
H           3.6569837    -0.7030544     1.6623482
H           5.2300530    -0.1918636     1.0342646
O           2.5901216    -2.9695694    -0.1924776
O           2.5140325    -1.6047168    -2.3444284
20
194_C7H9NO2S_0-6-11-12 (60,) energy =    -875.4793282
C           0.9348044     0.6199484    -0.5429685
H           1.6424662     1.1553310    -1.1670384
C          -0.1859479     1.2592111    -0.0182188
H          -0.3579953     2.3096239    -0.2348727
C          -1.0877410     0.5506051     0.7824977
H          -1.9605975     1.0547611     1.1881383
C           1.1404521    -0.7315581    -0.2517772
C          -0.8723114    -0.7994656     1.0612801
H          -1.5749746    -1.3484182     1.6816013
C           0.2488124    -1.4514220     0.5429483
H           0.4381755    -2.5003413     0.7431154
S           2.5541346    -1.5806642    -0.9606907
N           3.8495156    -0.6796964    -0.3403313
H           4.5662002    -0.6694199    -1.0646567
C           4.3522356    -1.0628955     0.9854874
H           4.6972379    -2.1019868     1.0384378
H           3.5582059    -0.9172531     1.7231223
H           5.1744377    -0.3875568     1.2372680
O           2.5549256    -2.9484572    -0.4247436
O           2.6004154    -1.3384878    -2.4065693
20
194_C7H9NO2S_0-6-11-12 (75,) energy =    -875.4793947
C           0.8116905     0.6296842    -0.7027077
H           1.4167879     1.1389404    -1.4452937
C          -0.3089274     1.2416845    -0.1452952
H          -0.5825876     2.2473226    -0.4514290
C          -1.0827970     0.5611826     0.7999527
H          -1.9566147     1.0431318     1.2297693
C           1.1455541    -0.6655410    -0.2988481
C          -0.7428243    -0.7356703     1.1875532
H          -1.3510923    -1.2656862     1.9148873
C           0.3772787    -1.3606667     0.6352736
H           0.6502255    -2.3748293     0.9060505
S           2.5785247    -1.4632220    -1.0271606
N           3.8617473    -0.6723720    -0.2491888
H           4.6111481    -0.5933883    -0.9352090
C           4.2956472    -1.2166179     1.0436464
H           4.6035938    -2.2675446     0.9951802
H           3.4775088    -1.1209847     1.7631771
H           5.1287415    -0.6039309     1.3985982
O           2.5314031    -2.8809899    -0.6459250
O           2.6938958    -1.0569850    -2.4315902
20
194_C7H9NO2S_0-6-11-12 (90,) energy =    -875.4789893
C           0.6683988     0.6330145    -0.8136657
H           1.1859331     1.0978179    -1.6459146
C          -0.4645276     1.2158979    -0.2475504
H          -0.8378861     2.1577992    -0.6391145
C          -1.1220292     0.5871909     0.8132619
H          -2.0052706     1.0454905     1.2495565
C           1.1314041    -0.5800815    -0.3005250
C          -0.6572889    -0.6338697     1.3058430
H          -1.1796735    -1.1292408     2.1192807
C           0.4719965    -1.2310588     0.7439048
H           0.8255754    -2.1970717     1.0881717
S           2.5776950    -1.3411540    -1.0404316
N           3.8510157    -0.6797644    -0.1349007
H           4.6172660    -0.5198724    -0.7869533
C           4.2482231    -1.3864510     1.0887716
H           4.5164874    -2.4359249     0.9212327
H           3.4279575    -1.3411043     1.8108357
H           5.1005747    -0.8517728     1.5165853
O           2.4782438    -2.7865798    -0.8003945
O           2.7602426    -0.8002138    -2.3912473
20
194_C7H9NO2S_0-6-11-12 (105,) energy =    -875.4778931
C           0.5778138     0.5957731    -0.9189559
H           1.0341197     1.0122293    -1.8102729
C          -0.5897046     1.1360756    -0.3783010
H          -1.0561662     1.9934994    -0.8549335
C          -1.1600033     0.5726346     0.7647421
H          -2.0694148     0.9965044     1.1815889
C           1.1647156    -0.5054797    -0.2953572
C          -0.5746720    -0.5448951     1.3654973
H          -1.0308114    -0.9946333     2.2427940
C           0.5867489    -1.0998070     0.8295555
H           1.0229856    -1.9949871     1.2601143
S           2.6368411    -1.2288802    -1.0239872
N           3.8833512    -0.6997385    -0.0006980
H           4.6456539    -0.4019942    -0.6065447
C           4.3029163    -1.5884011     1.0898751
H           4.5574788    -2.6006648     0.7565848
H           3.5051336    -1.6503459     1.8350784
H           5.1716676    -1.1290348     1.5691287
O           2.5001275    -2.6869905    -0.9208108
O           2.8926619    -0.5677169    -2.3080223
20
194_C7H9NO2S_0-6-11-12 (120,) energy =    -875.4777885
C           0.5775908     0.5174465    -1.0265406
H           1.0796531     0.8242200    -1.9376168
C          -0.6291724     1.0959680    -0.6274902
H          -1.0806004     1.8735597    -1.2369440
C          -1.2525355     0.6744404     0.5475564
H          -2.1911264     1.1274941     0.8547628
C           1.1436326    -0.4787170    -0.2315000
C          -0.6767733    -0.3309724     1.3310556
H          -1.1668890    -0.6595097     2.2430628
C           0.5255056    -0.9175139     0.9427598
H           0.9830423    -1.7003914     1.5381513
S           2.6639342    -1.2620486    -0.7745766
N           3.6963391    -0.8777402     0.5226564
H           3.9727154     0.0990106     0.4235884
C           4.8605265    -1.7665668     0.6878492
H           5.5695200    -1.7232653    -0.1490124
H           4.5017131    -2.7904825     0.7974678
H           5.3711603    -1.4694928     1.6079974
O           2.5095767    -2.7194923    -0.7398352
O           3.0907499    -0.5885022    -2.0102164
20
194_C7H9NO2S_0-6-11-12 (135,) energy =    -875.4774509
C           0.4214572     0.4612165    -1.0534626
H           0.8713776     0.7373146    -2.0008929
C          -0.8091304     0.9834728    -0.6519140
H          -1.3356049     1.6778361    -1.3003826
C          -1.3586230     0.6158466     0.5772369
H          -2.3156854     1.0263721     0.8871724
C           1.0887546    -0.4249955    -0.2069268
C          -0.6826146    -0.2788325     1.4122488
H          -1.1127585    -0.5637389     2.3681601
C           0.5445215    -0.8109649     1.0211600
H           1.0819741    -1.5034943     1.6596000
S           2.6142472    -1.1685895    -0.7909159
N           3.6015747    -0.9898616     0.5822362
H           3.9190027    -0.0213100     0.6164418
C           4.7196756    -1.9438702     0.6889240
H           5.4738448    -1.8265273    -0.0998292
H           4.3166963    -2.9562156     0.6473624
H           5.1909609    -1.7889292     1.6634252
O           2.4338376    -2.6134440    -0.9643528
O           3.1012436    -0.3467726    -1.9089868
20
194_C7H9NO2S_0-6-11-12 (150,) energy =    -875.4766770
C           0.3681280     0.4105555    -1.1149566
H           0.7632828     0.6524104    -2.0958031
C          -0.8966297     0.8460242    -0.7202434
H          -1.5043119     1.4264823    -1.4084407
C          -1.3770757     0.5404989     0.5548199
H          -2.3615640     0.8844170     0.8598027
C           1.1431496    -0.3284340    -0.2175732
C          -0.5950338    -0.2046603     1.4405331
H          -0.9690513    -0.4403864     2.4328345
C           0.6688074    -0.6519887     1.0557784
H           1.2891866    -1.2276566     1.7332074
S           2.7031441    -0.9810560    -0.8217886
N           3.6401771    -0.9962331     0.5955613
H           4.0486145    -0.0695614     0.7112639
C           4.6461367    -2.0681264     0.6947556
H           5.4447828    -1.9917671    -0.0538067
H           4.1450292    -3.0293043     0.5795981
H           5.0844169    -2.0122085     1.6951582
O           2.5351494    -2.3855787    -1.2095554
O           3.2333723    -0.0076674    -1.7874328
20
194_C7H9NO2S_0-6-11-12 (165,) energy =    -875.4756455
C           0.3150531     0.3252991    -1.1393153
H           0.6541770     0.5143600    -2.1526675
C          -0.9800799     0.6590836    -0.7490276
H          -1.6619397     1.1010660    -1.4698523
C          -1.3982319     0.4305107     0.5646828
H          -2.4081155     0.6952461     0.8654429
C           1.1862701    -0.2386129    -0.2013366
C          -0.5204088    -0.1335686     1.4911531
H          -0.8435329    -0.3079848     2.5135930
C           0.7784920    -0.4775695     1.1111107
H           1.4739685    -0.9117193     1.8199559
S           2.8057181    -0.7320685    -0.8035291
N           3.6992848    -0.9498749     0.6200790
H           4.2733034    -0.1199921     0.7542739
C           4.4551447    -2.2053971     0.7550043
H           5.2763493    -2.3023464     0.0347645
H           3.7744748    -3.0461233     0.6204850
H           4.8596591    -2.2358299     1.7708208
O           2.6864953    -2.0456412    -1.4455130
O           3.3591882     0.4124444    -1.5392175
20
194_C7H9NO2S_0-6-11-12 (180,) energy =    -875.4757125
C           0.3458737     0.1854719    -1.1633832
H           0.6400777     0.2880393    -2.2031558
C          -0.9714202     0.4165513    -0.7745661
H          -1.7079297     0.7074920    -1.5180094
C          -1.3436949     0.2754746     0.5654455
H          -2.3725928     0.4556801     0.8642464
C           1.2865574    -0.1893378    -0.1977487
C          -0.3953671    -0.0921507     1.5199056
H          -0.6826472    -0.1963854     2.5624058
C           0.9305539    -0.3210349     1.1441835
H           1.6831808    -0.5878030     1.8769265
S           2.9707342    -0.4336218    -0.7751576
N           3.8131854    -0.8688427     0.6276171
H           4.6092722    -0.2382167     0.6926734
C           4.1588195    -2.2884032     0.7952715
H           4.7819972    -2.6845041    -0.0138944
H           3.2420344    -2.8796831     0.8481668
H           4.6861490    -2.3874100     1.7482031
O           2.9535393    -1.5573195    -1.7188675
O           3.5166142     0.8688790    -1.1758629
