20
194_C7H9NO2S_6-11-12-14 (-165,) energy =    -875.4777456
C           0.8797522     0.6684177    -0.5935301
H           1.6818922     1.0409061    -1.2217339
C          -0.2506903     1.4405747    -0.3357364
H          -0.3340203     2.4345535    -0.7657382
C          -1.2769392     0.9355274     0.4690965
H          -2.1570612     1.5417945     0.6650776
C           0.9682555    -0.6075855    -0.0304844
C          -1.1789050    -0.3442209     1.0169441
H          -1.9809023    -0.7366095     1.6355556
C          -0.0505536    -1.1280896     0.7671332
H           0.0449507    -2.1298279     1.1718992
S           2.4045402    -1.6222504    -0.3828179
N           3.6017004    -0.7596939     0.4715129
H           3.4231889    -0.8917548     1.4676759
C           4.9869415    -1.1236750     0.1186507
H           5.6527718    -0.4567073     0.6729125
H           5.1271147    -0.9525929    -0.9495644
H           5.2403772    -2.1656466     0.3529566
O           2.1711139    -2.9462232     0.2141267
O           2.7636141    -1.5031234    -1.7989817
20
194_C7H9NO2S_6-11-12-14 (-150,) energy =    -875.4778101
C           0.9396284     0.6079031    -0.6429542
H           1.7460732     0.9492139    -1.2833100
C          -0.1833756     1.4004859    -0.4167356
H          -0.2541556     2.3796556    -0.8816092
C          -1.2184288     0.9349274     0.4003985
H          -2.0928572     1.5565920     0.5720948
C           1.0119574    -0.6496601    -0.0383585
C          -1.1365043    -0.3270438     0.9902060
H          -1.9460133    -0.6899880     1.6169864
C          -0.0162934    -1.1315807     0.7710952
H           0.0625109    -2.1220506     1.2060849
S           2.4451680    -1.6852991    -0.3436111
N           3.6315682    -0.9056900     0.5945632
H           3.5354921    -1.2323803     1.5552848
C           5.0164574    -1.0141927     0.1041276
H           5.6382783    -0.3782336     0.7403988
H           5.0547233    -0.6368075    -0.9180358
H           5.4120190    -2.0379608     0.1205134
O           2.1517952    -3.0163580     0.2069614
O           2.8631399    -1.5203302    -1.7390612
20
194_C7H9NO2S_6-11-12-14 (-135,) energy =    -875.4776960
C           0.9256679     0.5498329    -0.7344574
H           1.6982543     0.8415846    -1.4378563
C          -0.1790115     1.3664762    -0.4986030
H          -0.2662164     2.3170977    -1.0169703
C          -1.1744054     0.9603221     0.3945287
H          -2.0343443     1.5999606     0.5731084
C           1.0192464    -0.6713775    -0.0634513
C          -1.0729996    -0.2680712     1.0499847
H          -1.8536435    -0.5877111     1.7344017
C           0.0276957    -1.0954004     0.8217378
H           0.1145489    -2.0625264     1.3051259
S           2.4413538    -1.7262907    -0.3614178
N           3.6128908    -1.0853875     0.6894207
H           3.6000726    -1.6399727     1.5431325
C           4.9685817    -0.8948095     0.1512104
H           5.5468828    -0.3561051     0.9073670
H           4.9095475    -0.2819216    -0.7485029
H           5.4819020    -1.8323739    -0.0968878
O           2.0881576    -3.0750642     0.1013532
O           2.9171084    -1.4765159    -1.7255521
20
194_C7H9NO2S_6-11-12-14 (-120,) energy =    -875.4779270
C           0.9101289     0.4906664    -0.8305937
H           1.6430941     0.7237064    -1.5954172
C          -0.1696938     1.3385305    -0.5823942
H          -0.2754174     2.2567803    -1.1530784
C          -1.1154073     1.0034413     0.3889814
H          -1.9559799     1.6656880     0.5770645
C           1.0279467    -0.6878259    -0.0922423
C          -0.9909550    -0.1854354     1.1122561
H          -1.7345856    -0.4512282     1.8581757
C           0.0836466    -1.0414161     0.8733798
H           0.1838518    -1.9783680     1.4107989
S           2.4214028    -1.7782920    -0.3988642
N           3.5746009    -1.2857853     0.7477528
H           3.6660408    -2.0445745     1.4199819
C           4.8680053    -0.7987105     0.2474338
H           5.4451240    -0.4611584     1.1130950
H           4.7014393     0.0558857    -0.4101293
H           5.4425108    -1.5534950    -0.3025166
O           2.0084409    -3.1346369    -0.0164060
O           2.9455386    -1.4667157    -1.7325838
20
194_C7H9NO2S_6-11-12-14 (-105,) energy =    -875.4787016
C           0.8750719     0.4190903    -0.9511462
H           1.5488501     0.5968461    -1.7822834
C          -0.1854054     1.2850243    -0.6767699
H          -0.3370609     2.1635134    -1.2974480
C          -1.0502986     1.0180327     0.3853728
H          -1.8754343     1.6933705     0.5941839
C           1.0527424    -0.7066869    -0.1470447
C          -0.8651434    -0.1196229     1.1770038
H          -1.5459961    -0.3309058     1.9966223
C           0.1892259    -0.9914474     0.9134979
H           0.3365514    -1.8867127     1.5082244
S           2.4125410    -1.8258504    -0.4939978
N           3.5461010    -1.4496594     0.7149644
H           3.7833436    -2.3328047     1.1633496
C           4.7254791    -0.6689738     0.3150718
H           5.3431886    -0.5314668     1.2069112
H           4.4057684     0.3169773    -0.0305973
H           5.3187580    -1.1417169    -0.4755613
O           1.9669994    -3.1899612    -0.1846917
O           2.9566627    -1.4661510    -1.8084488
20
194_C7H9NO2S_6-11-12-14 (-90,) energy =    -875.4793766
C           0.9210333     0.3617414    -1.0072239
H           1.5609383     0.4981901    -1.8721888
C          -0.1217148     1.2469996    -0.7247548
H          -0.2956974     2.0991056    -1.3755776
C          -0.9394352     1.0332861     0.3854047
H          -1.7506921     1.7231733     0.6010549
C           1.1283470    -0.7283075    -0.1623054
C          -0.7241320    -0.0687608     1.2193052
H          -1.3677797    -0.2359120     2.0781815
C           0.3125091    -0.9589010     0.9485239
H           0.4862798    -1.8241501     1.5794945
S           2.4516549    -1.8835111    -0.5295425
N           3.5599542    -1.5735048     0.7178935
H           3.9479571    -2.4769887     0.9854784
C           4.5792439    -0.5465915     0.4645237
H           5.2156936    -0.4864861     1.3515170
H           4.0869349     0.4215182     0.3369291
H           5.1944476    -0.7494182    -0.4195541
O           1.9811289    -3.2485626    -0.2708172
O           3.0154130    -1.5047171    -1.8317414
20
194_C7H9NO2S_6-11-12-14 (-75,) energy =    -875.4789539
C           0.9677669     0.3145120    -1.0934142
H           1.5749362     0.4130337    -1.9866202
C          -0.0445970     1.2283649    -0.7929669
H          -0.2301023     2.0650236    -1.4604093
C          -0.8170475     1.0636911     0.3575710
H          -1.6043223     1.7767122     0.5864291
C           1.1905053    -0.7542685    -0.2253503
C          -0.5868877    -0.0168585     1.2152066
H          -1.1942978    -0.1453901     2.1065093
C           0.4190714    -0.9361864     0.9258901
H           0.6057282    -1.7849527     1.5754003
S           2.4605635    -1.9581031    -0.6246291
N           3.5771395    -1.6954564     0.6221347
H           4.1016195    -2.5608325     0.7422285
C           4.4104094    -0.4910123     0.5320453
H           5.0513808    -0.4613480     1.4173003
H           3.7634732     0.3902977     0.5547071
H           5.0302746    -0.4538533    -0.3722396
O           1.9587447    -3.3154292    -0.3920705
O           3.0185312    -1.5795563    -1.9309028
20
194_C7H9NO2S_6-11-12-14 (-60,) energy =    -875.4786009
C           0.9466683     0.5416485    -0.3047382
H           1.6103952     1.1835424    -0.8740359
C          -0.1451945     1.0658776     0.3889465
H          -0.3260169     2.1369824     0.3779265
C          -1.0078153     0.2160635     1.0842924
H          -1.8586344     0.6284807     1.6195147
C           1.1623274    -0.8385073    -0.2892696
C          -0.7879217    -1.1639561     1.0841999
H          -1.4694096    -1.8248530     1.6122875
C           0.3003839    -1.6992619     0.3960907
H           0.4707765    -2.7705278     0.3638836
S           2.5884227    -1.5257797    -1.1490511
N           3.8523072    -1.5995220    -0.0381516
H           3.6967597    -2.3716977     0.6054383
C           4.3194719    -0.3611706     0.5886270
H           3.5861378     0.0954957     1.2687354
H           4.5719318     0.3505399    -0.1999081
H           5.2304589    -0.5897149     1.1484924
O           2.2836334    -2.9217155    -1.4666674
O           2.9870070    -0.5475772    -2.1618422
20
194_C7H9NO2S_6-11-12-14 (-45,) energy =    -875.4772141
C           0.9520922     0.5578149    -0.4080509
H           1.5777587     1.1852817    -1.0336180
C          -0.1265731     1.0879443     0.3013173
H          -0.3376254     2.1519428     0.2430433
C          -0.9369645     0.2531973     1.0737944
H          -1.7776032     0.6702896     1.6213581
C           1.2065902    -0.8130914    -0.3304333
C          -0.6779362    -1.1185482     1.1363524
H          -1.3186054    -1.7686572     1.7253613
C           0.3974038    -1.6597091     0.4325068
H           0.5958819    -2.7266687     0.4486437
S           2.6058935    -1.5114250    -1.2257200
N           3.9118790    -1.5746104    -0.1527573
H           3.8511623    -2.4487162     0.3653911
C           4.1924708    -0.4107286     0.6929924
H           3.4068954    -0.1958547     1.4302919
H           4.3313661     0.4627363     0.0512261
H           5.1342218    -0.5968083     1.2165605
O           2.3082140    -2.9135051    -1.5283225
O           2.9551374    -0.5378594    -2.2608542
20
194_C7H9NO2S_6-11-12-14 (-30,) energy =    -875.4746645
C           0.9385352     0.5731368    -0.4804897
H           1.5283705     1.1849405    -1.1544683
C          -0.1289062     1.1100608     0.2401954
H          -0.3691836     2.1647541     0.1408032
C          -0.8918422     0.2932007     1.0777166
H          -1.7238719     0.7158380     1.6341020
C           1.2294373    -0.7861313    -0.3483401
C          -0.5968870    -1.0675750     1.1944994
H          -1.2011786    -1.7037822     1.8348583
C           0.4676744    -1.6155969     0.4791665
H           0.6937806    -2.6755984     0.5378655
S           2.6065039    -1.4936422    -1.2695419
N           3.9523191    -1.5079102    -0.2310604
H           4.0180164    -2.4527374     0.1428375
C           4.0765420    -0.4813602     0.8084648
H           3.2883053    -0.5189115     1.5723361
H           4.0709591     0.5062038     0.3399400
H           5.0493633    -0.6146604     1.2901117
O           2.3286263    -2.9097063    -1.5318407
O           2.8934351    -0.5479427    -2.3487774
20
194_C7H9NO2S_6-11-12-14 (-15,) energy =    -875.4717772
C           0.9245360     0.5908010    -0.5480952
H           1.4878105     1.1874018    -1.2575926
C          -0.1335569     1.1349969     0.1805534
H          -0.3939637     2.1815794     0.0510562
C          -0.8622851     0.3352348     1.0642314
H          -1.6876807     0.7634487     1.6262057
C           1.2409892    -0.7580693    -0.3746625
C          -0.5424736    -1.0158098     1.2202127
H          -1.1207135    -1.6389449     1.8964240
C           0.5137760    -1.5714940     0.4980652
H           0.7599551    -2.6249156     0.5863113
S           2.5964181    -1.4769654    -1.3164220
N           3.9863552    -1.3970089    -0.3234367
H           4.2020397    -2.3653554    -0.0916760
C           3.9996051    -0.5394484     0.8678830
H           3.2492938    -0.8050506     1.6245403
H           3.8485990     0.5016499     0.5721737
H           4.9967515    -0.6167197     1.3106629
O           2.3479798    -2.9123250    -1.5036307
O           2.8074544    -0.5893125    -2.4608219
20
194_C7H9NO2S_6-11-12-14 (0,) energy =    -875.4695525
C           0.9242078     0.5798745    -0.5871048
H           1.4723910     1.1592792    -1.3223997
C          -0.1288741     1.1366169     0.1389619
H          -0.4010760     2.1762095    -0.0191009
C          -0.8382202     0.3570434     1.0562048
H          -1.6602220     0.7950445     1.6155990
C           1.2560147    -0.7599132    -0.3743991
C          -0.5046992    -0.9858696     1.2485279
H          -1.0684846    -1.5937198     1.9503485
C           0.5478136    -1.5540741     0.5304249
H           0.8067344    -2.6015565     0.6463121
S           2.5962519    -1.4947266    -1.3212262
N           4.0151386    -1.2867199    -0.3742457
H           4.3982263    -2.2273472    -0.2870255
C           3.9531897    -0.6152166     0.9300389
H           3.2908459    -1.0979669     1.6617128
H           3.6343855     0.4210508     0.7985596
H           4.9714316    -0.6012619     1.3298115
O           2.3832028    -2.9471814    -1.4096026
O           2.7408018    -0.6905140    -2.5353126
20
194_C7H9NO2S_6-11-12-14 (15,) energy =    -875.4688777
C           0.9296912     0.5745774    -0.6096690
H           1.4779082     1.1384738    -1.3570951
C          -0.1216830     1.1476658     0.1057463
H          -0.3930987     2.1840846    -0.0729260
C          -0.8316603     0.3868432     1.0383557
H          -1.6532276     0.8366855     1.5889595
C           1.2606311    -0.7606334    -0.3672574
C          -0.4998344    -0.9523101     1.2574803
H          -1.0649772    -1.5443948     1.9715229
C           0.5520966    -1.5371228     0.5517286
H           0.8121802    -2.5816137     0.6880652
S           2.5891020    -1.5162685    -1.3102244
N           4.0167049    -1.1706376    -0.4136742
H           4.5695940    -2.0251349    -0.4812573
C           3.9257543    -0.7022526     0.9755606
H           3.3907080    -1.3807308     1.6550209
H           3.4453513     0.2773034     1.0052243
H           4.9516917    -0.5827753     1.3362383
O           2.4044501    -2.9765495    -1.2912879
O           2.6859933    -0.8080068    -2.5872128
20
194_C7H9NO2S_6-11-12-14 (30,) energy =    -875.4702435
C           0.9400515     0.5741314    -0.6145239
H           1.5031507     1.1294770    -1.3574888
C          -0.1110154     1.1644726     0.0867192
H          -0.3676828     2.2033537    -0.0993496
C          -0.8400683     0.4168252     1.0156131
H          -1.6615835     0.8799431     1.5551856
C           1.2531418    -0.7635310    -0.3603729
C          -0.5267664    -0.9247869     1.2456335
H          -1.1052789    -1.5064068     1.9575922
C           0.5259474    -1.5261380     0.5547605
H           0.7769359    -2.5710880     0.7017894
S           2.5790681    -1.5395995    -1.2876312
N           3.9887542    -1.0371087    -0.4512340
H           4.7041455    -1.7253161    -0.6856374
C           3.9257720    -0.7708193     0.9918605
H           3.5641327    -1.6151320     1.5963089
H           3.2923832     0.0977123     1.1780671
H           4.9414571    -0.5220718     1.3129453
O           2.4300033    -2.9978730    -1.1472047
O           2.6429235    -0.9435937    -2.6229499
20
194_C7H9NO2S_6-11-12-14 (45,) energy =    -875.4733496
C           0.9599661     0.5705213    -0.5819732
H           1.5600697     1.1185696    -1.3011290
C          -0.0986138     1.1817005     0.0885173
H          -0.3257883     2.2269390    -0.1003362
C          -0.8723149     0.4471434     0.9918780
H          -1.6995837     0.9262490     1.5082702
C           1.2366357    -0.7748011    -0.3234682
C          -0.5937815    -0.9007257     1.2275957
H          -1.2043427    -1.4706101     1.9220650
C           0.4667367    -1.5232475     0.5672455
H           0.6967595    -2.5715577     0.7229072
S           2.5699958    -1.5776464    -1.2168073
N           3.9435624    -0.9190264    -0.4576358
H           4.7592952    -1.3733297    -0.8658575
C           3.9822445    -0.8322501     1.0066739
H           3.8549687    -1.7978613     1.5162626
H           3.2105351    -0.1413198     1.3501028
H           4.9555505    -0.4154539     1.2803489
O           2.4630181    -3.0204300    -0.9435016
O           2.6133900    -1.1053109    -2.6020662
20
194_C7H9NO2S_6-11-12-14 (60,) energy =    -875.4768064
C           0.9500342     0.5789080    -0.5764680
H           1.5788264     1.1187351    -1.2769116
C          -0.1236346     1.2020442     0.0568767
H          -0.3359296     2.2477653    -0.1461248
C          -0.9291833     0.4806626     0.9433647
H          -1.7673246     0.9700746     1.4318432
C           1.2082283    -0.7669409    -0.3012807
C          -0.6664642    -0.8663046     1.1992798
H          -1.2986493    -1.4259936     1.8826157
C           0.4080486    -1.5016183     0.5739329
H           0.6286157    -2.5491209     0.7475468
S           2.5589274    -1.5875604    -1.1523966
N           3.9015871    -0.8208946    -0.4577527
H           4.7200498    -1.0740698    -1.0091662
C           4.0862748    -0.9295009     0.9934016
H           4.1995842    -1.9627677     1.3476629
H           3.2321828    -0.4714286     1.4974038
H           4.9805429    -0.3581771     1.2568520
O           2.4966123    -3.0090216    -0.7778730
O           2.5901442    -1.2032737    -2.5656343
20
194_C7H9NO2S_6-11-12-14 (75,) energy =    -875.4789531
C           0.9060803     0.5784107    -0.5981216
H           1.5401240     1.1064471    -1.3025876
C          -0.1886961     1.2046631    -0.0065235
H          -0.4139252     2.2395856    -0.2475096
C          -0.9986873     0.5007799     0.8903580
H          -1.8525275     0.9938653     1.3468995
C           1.1790008    -0.7536500    -0.2746101
C          -0.7189727    -0.8314980     1.1976245
H          -1.3539907    -1.3769749     1.8897643
C           0.3762777    -1.4706616     0.6125533
H           0.6090862    -2.5083081     0.8255412
S           2.5639441    -1.5775641    -1.0649755
N           3.8784876    -0.7488064    -0.3911830
H           4.6529382    -0.8282700    -1.0485626
C           4.2284298    -1.0633042     0.9983448
H           4.4905145    -2.1167458     1.1564767
H           3.3831949    -0.8077944     1.6433891
H           5.0726105    -0.4290928     1.2821607
O           2.5363214    -2.9812571    -0.6293242
O           2.6042636    -1.2389294    -2.4904414
20
194_C7H9NO2S_6-11-12-14 (90,) energy =    -875.4793766
C           0.8232928     0.6343035    -0.6509901
H           1.4443576     1.1488621    -1.3765833
C          -0.2958089     1.2515918    -0.0970917
H          -0.5513104     2.2663192    -0.3885616
C          -1.0909367     0.5655268     0.8266961
H          -1.9634616     1.0520924     1.2539224
C           1.1345729    -0.6722895    -0.2654186
C          -0.7726794    -0.7415885     1.1968752
H          -1.3959156    -1.2756446     1.9084198
C           0.3467513    -1.3716121     0.6485428
H           0.6067062    -2.3918338     0.9090046
S           2.5620088    -1.4813099    -0.9923115
N           3.8549869    -0.6479254    -0.2759250
H           4.5653273    -0.5468795    -0.9995317
C           4.3749680    -1.1834627     0.9892211
H           4.7113510    -2.2241451     0.9183979
H           3.5951723    -1.1161894     1.7529477
H           5.2072911    -0.5465405     1.3006484
O           2.5410829    -2.8831890    -0.5549752
O           2.6404525    -1.1274625    -2.4137155
20
194_C7H9NO2S_6-11-12-14 (105,) energy =    -875.4787016
C           0.7112302     0.6399199    -0.7223834
H           1.3058788     1.1275331    -1.4875869
C          -0.4204536     1.2552625    -0.1914552
H          -0.7092719     2.2431690    -0.5387275
C          -1.1856316     0.6010977     0.7789498
H          -2.0681385     1.0856995     1.1874433
C           1.0650542    -0.6324065    -0.2669164
C          -0.8257100    -0.6737976     1.2178908
H          -1.4270337    -1.1854981     1.9639288
C           0.3062128    -1.3011325     0.6935779
H           0.5945695    -2.2987565     1.0065471
S           2.5207733    -1.4326913    -0.9469703
N           3.8037742    -0.6420848    -0.1613293
H           4.4299227    -0.3208362    -0.8975323
C           4.4959552    -1.3764182     0.9072349
H           4.9245822    -2.3300950     0.5795796
H           3.7964707    -1.5703112     1.7238925
H           5.2895201    -0.7273311     1.2877711
O           2.4841268    -2.8407247    -0.5354124
O           2.6383110    -1.0382386    -2.3560493
20
194_C7H9NO2S_6-11-12-14 (120,) energy =    -875.4779271
C           0.6085217     0.6319542    -0.7858049
H           1.1685869     1.0726434    -1.6036453
C          -0.5427075     1.2427192    -0.2895803
H          -0.8798979     2.1827641    -0.7169300
C          -1.2644207     0.6437463     0.7459469
H          -2.1622154     1.1223462     1.1273114
C           1.0252413    -0.5785826    -0.2289263
C          -0.8422943    -0.5732894     1.2851909
H          -1.4122126    -1.0440907     2.0811552
C           0.3079610    -1.1944883     0.7977456
H           0.6396816    -2.1499731     1.1895456
S           2.5128985    -1.3668981    -0.8536361
N           3.7572857    -0.6489747     0.0538850
H           4.2967350    -0.0724802    -0.5884973
C           4.5942411    -1.5310462     0.8796726
H           5.1661682    -2.2668015     0.3019531
H           3.9624722    -2.0653544     1.5909073
H           5.2833190    -0.8934063     1.4408902
O           2.4492259    -2.7870153    -0.4932689
O           2.6975273    -0.9176309    -2.2394441
20
194_C7H9NO2S_6-11-12-14 (135,) energy =    -875.4776961
C           0.5604137     0.5941038    -0.8629553
H           1.0932713     0.9884862    -1.7214822
C          -0.6093495     1.1965307    -0.3973405
H          -0.9901930     2.0855789    -0.8918682
C          -1.2912997     0.6533817     0.6929950
H          -2.2030043     1.1242067     1.0502490
C           1.0335844    -0.5494849    -0.2188991
C          -0.8116764    -0.4996159     1.3207625
H          -1.3506181    -0.9277964     2.1611212
C           0.3559059    -1.1100757     0.8659256
H           0.7322170    -2.0154352     1.3301413
S           2.5395842    -1.3302093    -0.8074020
N           3.7242833    -0.6952688     0.2322494
H           4.1579117     0.0964102    -0.2386604
C           4.7066254    -1.6377099     0.7896539
H           5.3792122    -2.0711405     0.0387622
H           4.1757457    -2.4478252     1.2901227
H           5.2974122    -1.0922950     1.5312059
O           2.4518414    -2.7652470    -0.5200549
O           2.7906677    -0.8253746    -2.1639431
20
194_C7H9NO2S_6-11-12-14 (150,) energy =    -875.4778104
C           0.5545435     0.5369071    -0.9394652
H           1.0810887     0.8898415    -1.8195697
C          -0.6387608     1.1271448    -0.5177559
H          -1.0499025     1.9647873    -1.0738246
C          -1.3020352     0.6383367     0.6084606
H          -2.2311286     1.0992358     0.9323538
C           1.0670980    -0.5387911    -0.2151112
C          -0.7801474    -0.4470752     1.3194121
H          -1.3030322    -0.8305790     2.1908604
C           0.4093650    -1.0445737     0.9091356
H           0.8218059    -1.8940950     1.4431273
S           2.5858412    -1.3200351    -0.7655853
N           3.6792245    -0.8177214     0.4378716
H           4.0103755     0.1136607     0.1887874
C           4.7880633    -1.7434903     0.7282094
H           5.4858131    -1.8732397    -0.1091254
H           4.3705571    -2.7149859     0.9939295
H           5.3300854    -1.3429758     1.5894421
O           2.4572023    -2.7722415    -0.6120808
O           2.9428544    -0.7243251    -2.0613884
20
194_C7H9NO2S_6-11-12-14 (165,) energy =    -875.4777420
C           0.5809133     0.5193587    -0.9405512
H           1.1312793     0.8514306    -1.8142223
C          -0.6062418     1.1402922    -0.5466225
H          -0.9894634     1.9807600    -1.1181322
C          -1.2996267     0.6783178     0.5729544
H          -2.2236786     1.1633532     0.8753482
C           1.0565418    -0.5592666    -0.1952631
C          -0.8148416    -0.4100876     1.3052307
H          -1.3612615    -0.7713614     2.1716938
C           0.3679360    -1.0385769     0.9222397
H           0.7544044    -1.8894144     1.4731739
S           2.5646654    -1.3810466    -0.7122845
N           3.6117424    -0.9157750     0.5496554
H           3.8029400     0.0806326     0.4385258
C           4.8595458    -1.6983974     0.6300680
H           5.5037374    -1.5893118    -0.2519614
H           4.5993991    -2.7504055     0.7553116
H           5.4018864    -1.3613713     1.5175528
O           2.4086599    -2.8328006    -0.5844052
O           2.9771021    -0.7891364    -1.9943080
20
194_C7H9NO2S_6-11-12-14 (180,) energy =    -875.4770684
C           0.8307647     0.7027029    -0.6288374
H           1.5964793     1.0945314    -1.2899598
C          -0.3053595     1.4482135    -0.3202539
H          -0.4298017     2.4415049    -0.7417805
C          -1.2851459     0.9161712     0.5237011
H          -2.1704030     1.5007508     0.7585793
C           0.9719621    -0.5724187    -0.0744885
C          -1.1355073    -0.3633718     1.0611930
H          -1.9027164    -0.7764316     1.7097306
C          -0.0007139    -1.1198262     0.7622712
H           0.1351042    -2.1205400     1.1580391
S           2.4187457    -1.5491194    -0.4853372
N           3.6113536    -0.6546622     0.3508318
H           3.3313193    -0.6317670     1.3329787
C           4.9689508    -1.2171733     0.2100018
H           5.6600635    -0.5480629     0.7293106
H           5.2279777    -1.2290700    -0.8505617
H           5.0650460    -2.2316683     0.6169276
O           2.2401484    -2.8861249     0.1032107
O           2.7362160    -1.4166096    -1.9097003
