30
017_C11H17N2+_10-11-23-24 (-165,) energy =    -538.6707242
C           0.4934353     0.1193265    -1.4164440
H           0.9656408     0.0618567    -2.3947530
C          -0.6245646     0.9360585    -1.2340396
H          -1.0131041     1.5135753    -2.0677928
C          -1.2443991     1.0022792     0.0141785
H          -2.1169166     1.6334621     0.1551323
C          -0.7471110     0.2464325     1.0795685
H          -1.2343326     0.2860718     2.0495969
C           0.3657826    -0.5728385     0.8945430
H           0.7433555    -1.1715679     1.7203274
C           0.9995817    -0.6417818    -0.3557600
C           2.2020963    -1.5348116    -0.5517446
H           2.3958179    -1.6314967    -1.6334865
H           2.0077102    -2.5424417    -0.1666950
N           6.0561254     0.0276021     0.5630605
H           6.3449096     0.3543880    -0.3676547
H           6.8308242     0.2436345     1.2002586
C           4.8005485     0.7830529     0.9784273
H           5.0311335     1.8495682     0.9243736
H           4.5991677     0.4950933     2.0122397
C           3.6509484     0.3854150     0.0631726
H           3.8567065     0.7397946    -0.9680039
H           2.7563289     0.9095644     0.4059729
N           3.4353118    -1.0573373     0.1409508
C           4.6088868    -1.7533154    -0.3721059
H           4.8360793    -1.4865930    -1.4247844
H           4.4322894    -2.8340803    -0.3509786
C           5.8228865    -1.4736661     0.5061302
H           6.7364723    -1.9328067     0.1209693
H           5.6479739    -1.7958275     1.5345334
30
017_C11H17N2+_10-11-23-24 (-150,) energy =    -538.6678712
C           0.5858362     0.0334858    -1.3952559
H           1.1173717    -0.0844564    -2.3371320
C          -0.4954512     0.9128191    -1.3179615
H          -0.7952500     1.4786271    -2.1952724
C          -1.1968577     1.0542659    -0.1194522
H          -2.0424369     1.7332477    -0.0603857
C          -0.8181772     0.3092283     1.0000687
H          -1.3706476     0.4050115     1.9303228
C           0.2602822    -0.5719115     0.9197037
H           0.5417621    -1.1631385     1.7883476
C           0.9776339    -0.7153452    -0.2777373
C           2.1472199    -1.6675900    -0.3591393
H           2.2997371    -1.9304670    -1.4171821
H           1.9281852    -2.5979768     0.1763041
N           6.0298856     0.0374759     0.4702534
H           6.1992525     0.4692084    -0.4470987
H           6.8580523     0.2363084     1.0423967
C           4.7918291     0.6753250     1.0868864
H           4.9674693     1.7531786     1.1216046
H           4.7134437     0.2743595     2.0993990
C           3.5724669     0.3068693     0.2517471
H           3.6556639     0.7790182    -0.7487200
H           2.6965476     0.7453614     0.7338331
N           3.4370735    -1.1443891     0.2022601
C           4.5772882    -1.7248283    -0.4910939
H           4.6820430    -1.3524611    -1.5313053
H           4.4542726    -2.8111170    -0.5552622
C           5.8645065    -1.4621831     0.2830468
H           6.7528486    -1.8263775    -0.2386346
H           5.8162482    -1.8929207     1.2850617
30
017_C11H17N2+_10-11-23-24 (-135,) energy =    -538.6658687
C           0.7036371    -0.0317572    -1.3581944
H           1.3047399    -0.2015856    -2.2492936
C          -0.3477264     0.8840084    -1.3997124
H          -0.5544230     1.4285681    -2.3165289
C          -1.1430130     1.0872018    -0.2694374
H          -1.9668300     1.7940396    -0.3038079
C          -0.8866837     0.3677566     0.8991038
H          -1.5118836     0.5104383     1.7757201
C           0.1660493    -0.5483061     0.9381561
H           0.3518846    -1.1188342     1.8455648
C           0.9759377    -0.7545464    -0.1875202
C           2.1199856    -1.7414261    -0.1370157
H           2.2188317    -2.2086106    -1.1252091
H           1.8930984    -2.5421322     0.5756041
N           6.0135655     0.0844797     0.3982976
H           6.0707760     0.6117387    -0.4824608
H           6.8889522     0.2644744     0.9022080
C           4.8243926     0.6014649     1.1972959
H           4.9675737     1.6768433     1.3283684
H           4.8621462     0.0955490     2.1640377
C           3.5413791     0.2675113     0.4456127
H           3.5073663     0.8527071    -0.4958306
H           2.7013905     0.6100749     1.0535249
N           3.4571123    -1.1702709     0.2436959
C           4.5400787    -1.6404520    -0.6017701
H           4.5422282    -1.1723687    -1.6087350
H           4.4494890    -2.7204126    -0.7540533
C           5.8853659    -1.3959010     0.0752894
H           6.7331700    -1.6659094    -0.5591029
H           5.9472854    -1.9235959     1.0290293
30
017_C11H17N2+_10-11-23-24 (-120,) energy =    -538.6659644
C           0.7921879    -0.1239281    -1.3402636
H           1.4454282    -0.3492678    -2.1813100
C          -0.2392639     0.8004123    -1.5004105
H          -0.3782141     1.2966276    -2.4567004
C          -1.1038301     1.0743588    -0.4370904
H          -1.9124791     1.7880508    -0.5642753
C          -0.9341439     0.4181632     0.7824316
H          -1.6112343     0.6170217     1.6080675
C           0.1021185    -0.5048549     0.9407040
H           0.2211457    -1.0243398     1.8892082
C           0.9779948    -0.7844186    -0.1160783
C           2.1062904    -1.7782676     0.0663233
H           2.1624856    -2.4365900    -0.8072059
H           1.8882938    -2.4158967     0.9312941
N           6.0007997     0.0889304     0.3425085
H           5.9566072     0.7143069    -0.4727298
H           6.9213426     0.2353678     0.7710752
C           4.8950024     0.4797942     1.3141607
H           5.0395203     1.5352854     1.5579831
H           5.0386394    -0.1356134     2.2044348
C           3.5455119     0.2076292     0.6578991
H           3.3980278     0.9146227    -0.1829612
H           2.7665988     0.4357888     1.3895590
N           3.4641420    -1.1851933     0.2638943
C           4.4660090    -1.5419474    -0.7190018
H           4.3859137    -0.9648720    -1.6651472
H           4.3702758    -2.5990989    -0.9827236
C           5.8642991    -1.3481001    -0.1370927
H           6.6553466    -1.5225158    -0.8706833
H           6.0181572    -1.9795994     0.7400853
30
017_C11H17N2+_10-11-23-24 (-105,) energy =    -538.6676675
C           0.8423879    -0.2518497    -1.3607960
H           1.5039095    -0.5603995    -2.1683180
C          -0.1683919     0.6739015    -1.6168658
H          -0.2805719     1.0904836    -2.6138321
C          -1.0467749     1.0511276    -0.5972730
H          -1.8396895     1.7655403    -0.7982569
C          -0.9112165     0.4958430     0.6752122
H          -1.5992511     0.7745038     1.4680988
C           0.1047460    -0.4282591     0.9295747
H           0.1960296    -0.8691045     1.9202413
C           0.9942518    -0.8106812    -0.0821786
C           2.1055233    -1.8009207     0.2095658
H           2.1551382    -2.5678775    -0.5696534
H           1.8818117    -2.3192991     1.1497395
N           5.9723603     0.1199369     0.3119126
H           5.8317394     0.8305996    -0.4180420
H           6.9283917     0.2479390     0.6613929
C           4.9646696     0.3621996     1.4276752
H           5.1101200     1.3875789     1.7765307
H           5.2136137    -0.3442294     2.2220195
C           3.5607633     0.1191185     0.8832440
H           3.3047274     0.9105516     0.1518356
H           2.8578077     0.2293186     1.7135622
N           3.4709568    -1.2203178     0.3349808
C           4.3750156    -1.4295305    -0.7776565
H           4.1919669    -0.7491823    -1.6363837
H           4.2724463    -2.4514366    -1.1536992
C           5.8193934    -1.2587397    -0.3128457
H           6.5382110    -1.3258163    -1.1332234
H           6.0709985    -1.9783503     0.4686946
30
017_C11H17N2+_10-11-23-24 (-90,) energy =    -538.6697505
C           0.8353050    -0.4211650    -1.4056430
H           1.4494950    -0.8566356    -2.1915258
C          -0.1440712     0.5135789    -1.7409324
H          -0.2749339     0.8123424    -2.7771320
C          -0.9681867     1.0497083    -0.7482386
H          -1.7369593     1.7707332    -1.0101193
C          -0.8124671     0.6422743     0.5771941
H          -1.4611577     1.0421197     1.3512435
C           0.1708370    -0.2916946     0.9093497
H           0.2725862    -0.6191374     1.9422789
C           1.0099025    -0.8306920    -0.0744409
C           2.0959039    -1.8220953     0.3026897
H           2.1432695    -2.6476950    -0.4142271
H           1.8586675    -2.2625732     1.2783811
N           5.9159889     0.1734898     0.3105344
H           5.6774525     0.9652850    -0.3008402
H           6.8993779     0.2970195     0.5755813
C           5.0259062     0.2242408     1.5441295
H           5.1760984     1.2004957     2.0115004
H           5.3785445    -0.5679007     2.2076230
C           3.5799938    -0.0066638     1.1169609
H           3.2213647     0.8615705     0.5310363
H           2.9692378    -0.0417621     2.0241367
N           3.4694239    -1.2665887     0.4054725
C           4.2599696    -1.2882863    -0.8106572
H           3.9670558    -0.5118376    -1.5475291
H           4.1465609    -2.2570492    -1.3062099
C           5.7385341    -1.1187982    -0.4720013
H           6.3698064    -1.0502065    -1.3612837
H           6.0909520    -1.9214694     0.1788225
30
017_C11H17N2+_10-11-23-24 (-75,) energy =    -538.6714280
C           0.7951093    -0.6233823    -1.4436913
H           1.3329599    -1.2047725    -2.1900520
C          -0.1541741     0.3114823    -1.8582570
H          -0.3359586     0.4645239    -2.9182251
C          -0.8830434     1.0340741    -0.9113291
H          -1.6289776     1.7554031    -1.2318949
C          -0.6645143     0.8108752     0.4491566
H          -1.2434339     1.3548161     1.1900135
C           0.2863538    -0.1247797     0.8599749
H           0.4303924    -0.3109577     1.9225973
C           1.0344779    -0.8480435    -0.0793984
C           2.0917905    -1.8401230     0.3721387
H           2.1323727    -2.7016980    -0.3024290
H           1.8397139    -2.2255033     1.3667047
N           5.8602469     0.2399197     0.3420929
H           5.5381361     1.0988636    -0.1225618
H           6.8614381     0.3668861     0.5267912
C           5.0981459     0.0753150     1.6485046
H           5.2655993     0.9792120     2.2390974
H           5.5380080    -0.7881943     2.1515213
C           3.6240492    -0.1545694     1.3322317
H           3.1844666     0.7691701     0.9094500
H           3.1100475    -0.3407860     2.2805196
N           3.4769566    -1.3133841     0.4663974
C           4.1422077    -1.1214741    -0.8121611
H           3.7447246    -0.2650540    -1.3925779
H           4.0082567    -2.0144948    -1.4306237
C           5.6410373    -0.9363884    -0.5968889
H           6.1757231    -0.7177454    -1.5243343
H           6.0822255    -1.8057465    -0.1052168
30
017_C11H17N2+_10-11-23-24 (-60,) energy =    -538.6717312
C           0.7175802    -0.8110379    -1.4521877
H           1.1757488    -1.5202144    -2.1389372
C          -0.2112122     0.1111456    -1.9367678
H          -0.4585640     0.1240809    -2.9943916
C          -0.8339925     1.0018796    -1.0605455
H          -1.5637633     1.7138447    -1.4347339
C          -0.5315611     0.9597609     0.3019192
H          -1.0298169     1.6347181     0.9919571
C           0.3975403     0.0360873     0.7825946
H           0.6011389    -0.0102262     1.8506576
C           1.0414024    -0.8556110    -0.0884400
C           2.0747840    -1.8397908     0.4308900
H           2.0925463    -2.7358516    -0.1994924
H           1.8196376    -2.1681640     1.4441286
N           5.8283779     0.2671329     0.3801130
H           5.4638841     1.1805407     0.0800389
H           6.8421095     0.3801577     0.4906496
C           5.1891481    -0.1023158     1.7098871
H           5.4035151     0.7075858     2.4112537
H           5.6776335    -1.0219050     2.0384413
C           3.6941044    -0.3136137     1.4961078
H           3.2140379     0.6521705     1.2447867
H           3.2705772    -0.6398759     2.4513696
N           3.4757017    -1.3460089     0.4918599
C           4.0140515    -0.9392964    -0.7990857
H           3.5524596    -0.0149175    -1.1957143
H           3.8260366    -1.7268481    -1.5359001
C           5.5250727    -0.7597550    -0.7003753
H           5.9665481    -0.3940994    -1.6305405
H           6.0168741    -1.6838573    -0.3899663
30
017_C11H17N2+_10-11-23-24 (-45,) energy =    -538.6702909
C           0.6266025    -0.9932741    -1.4366219
H           1.0159709    -1.8136217    -2.0365418
C          -0.2957160    -0.1081483    -1.9973518
H          -0.6097751    -0.2362153    -3.0292413
C          -0.8244177     0.9295197    -1.2280709
H          -1.5482594     1.6140118    -1.6605119
C          -0.4354242     1.0720838     0.1057341
H          -0.8613486     1.8640070     0.7152125
C           0.4852594     0.1843541     0.6633831
H           0.7535339     0.2824116     1.7134447
C           1.0352955    -0.8549850    -0.1031191
C           2.0586877    -1.8063157     0.4896872
H           2.0564648    -2.7418859    -0.0814836
H           1.8051932    -2.0655984     1.5223414
N           5.8413584     0.2639982     0.4513271
H           5.4801924     1.2190910     0.3311797
H           6.8635239     0.3424582     0.4922881
C           5.3012089    -0.3021852     1.7554222
H           5.5895750     0.3856589     2.5539086
H           5.7910849    -1.2677319     1.8963661
C           3.7891041    -0.4627310     1.6340563
H           3.3174462     0.5380321     1.5671385
H           3.4352960    -0.9225162     2.5619838
N           3.4710228    -1.3301598     0.5067266
C           3.9034756    -0.7145477    -0.7415690
H           3.4321042     0.2679826    -0.9305932
H           3.6304603    -1.3589220    -1.5829615
C           5.4212724    -0.5705982    -0.7496769
H           5.7909594    -0.0619906    -1.6432949
H           5.9145417    -1.5381823    -0.6376682
30
017_C11H17N2+_10-11-23-24 (-30,) energy =    -538.6679569
C           0.5459289    -1.1412881    -1.3972290
H           0.8906692    -2.0441965    -1.8973104
C          -0.3801730    -0.3115822    -2.0323315
H          -0.7441116    -0.5672519    -3.0232397
C          -0.8457557     0.8359299    -1.3891607
H          -1.5713036     1.4790175    -1.8785477
C          -0.3892313     1.1458822    -0.1056103
H          -0.7640796     2.0273451     0.4067986
C           0.5333403     0.3129190     0.5274534
H           0.8578685     0.5458222     1.5399007
C           1.0182327    -0.8379492    -0.1135382
C           2.0382488    -1.7365212     0.5581940
H           2.0152334    -2.7211833     0.0771039
H           1.7842095    -1.8944149     1.6105713
N           5.8890371     0.2337098     0.5107437
H           5.5679508     1.2082030     0.5756348
H           6.9137915     0.2670456     0.4731720
C           5.4295557    -0.5163312     1.7512938
H           5.8121925     0.0245315     2.6202302
H           5.8838012    -1.5076183     1.6956825
C           3.9066371    -0.6087431     1.7375653
H           3.4781494     0.4057531     1.8716008
H           3.6118299    -1.1993023     2.6100124
N           3.4610744    -1.2725604     0.5198031
C           3.8142595    -0.4725685    -0.6459029
H           3.3758478     0.5429998    -0.6278007
H           3.4413023    -0.9542449    -1.5542276
C           5.3309839    -0.3788273    -0.7661343
H           5.6489648     0.2572981    -1.5957517
H           5.7857130    -1.3674154    -0.8554054
30
017_C11H17N2+_10-11-23-24 (-15,) energy =    -538.6659870
C           0.4998493    -1.2686468    -1.3471840
H           0.8391849    -2.2188873    -1.7541388
C          -0.4317766    -0.5053534    -2.0541515
H          -0.8079808    -0.8606206    -3.0090952
C          -0.8860385     0.7046957    -1.5283264
H          -1.6154282     1.2963319    -2.0736928
C          -0.4119784     1.1461202    -0.2901386
H          -0.7764281     2.0787263     0.1310541
C           0.5160786     0.3804498     0.4149499
H           0.8602498     0.7184390     1.3907389
C           0.9872908    -0.8336762    -0.1078342
C           2.0053532    -1.6621567     0.6470852
H           1.9632449    -2.6974231     0.2896758
H           1.7475231    -1.6832222     1.7109775
N           5.9542721     0.1201429     0.5339458
H           5.7108320     1.0871388     0.7845289
H           6.9715720     0.1014698     0.4021887
C           5.5530535    -0.7971650     1.6786561
H           6.0484322    -0.4288113     2.5803654
H           5.9286584    -1.7896082     1.4218948
C           4.0317387    -0.7999638     1.8001664
H           3.6918723     0.1983048     2.1481676
H           3.7742900    -1.5163611     2.5857121
N           3.4322703    -1.2093551     0.5415617
C           3.7403774    -0.2579372    -0.5143426
H           3.3887319     0.7701043    -0.2987554
H           3.2532307    -0.5602026    -1.4446766
C           5.2440189    -0.2385256    -0.7644644
H           5.5373118     0.5063435    -1.5083430
H           5.6133954    -1.2245220    -1.0531343
30
017_C11H17N2+_10-11-23-24 (0,) energy =    -538.6657828
C           0.5345561    -1.3092013    -1.3033333
H           0.9220838    -2.2723811    -1.6282340
C          -0.3890640    -0.6289437    -2.0994381
H          -0.7125583    -1.0616802    -3.0416415
C          -0.9049485     0.5974727    -1.6775331
H          -1.6293598     1.1241517    -2.2918058
C          -0.4992745     1.1390108    -0.4552519
H          -0.9114196     2.0847544    -0.1153531
C           0.4230254     0.4574860     0.3385125
H           0.7175473     0.8741074     1.2997455
C           0.9541431    -0.7719253    -0.0786331
C           1.9613545    -1.5081916     0.7755052
H           1.9007735    -2.5844410     0.5772187
H           1.6993343    -1.3607819     1.8308791
N           5.9995898     0.0379056     0.5248732
H           5.8486539     0.9758433     0.9183720
H           6.9990100    -0.0262927     0.3021665
C           5.6255018    -0.9986384     1.5728791
H           6.2189309    -0.7876207     2.4659381
H           5.9049400    -1.9685768     1.1568638
C           4.1231286    -0.9215709     1.8305347
H           3.8883464     0.0311382     2.3513911
H           3.8744829    -1.7309543     2.5237181
N           3.3905110    -1.0927488     0.5921568
C           3.6872760    -0.0439798    -0.3656745
H           3.4421527     0.9752590    -0.0025359
H           3.1058363    -0.1947148    -1.2776921
C           5.1637796    -0.0975638    -0.7413151
H           5.4577607     0.7159317    -1.4091818
H           5.4289579    -1.0610272    -1.1810833
30
017_C11H17N2+_10-11-23-24 (15,) energy =    -538.6672286
C           0.3576700    -0.6532752    -1.1971937
H           0.8111993    -0.8653264    -2.1631253
C          -0.7537193    -1.3865189    -0.7796814
H          -1.1555992    -2.1686170    -1.4172770
C          -1.3558232    -1.1050021     0.4482727
H          -2.2254263    -1.6704326     0.7701196
C          -0.8467813    -0.0847227     1.2548375
H          -1.3212213     0.1478554     2.2038135
C           0.2634814     0.6487327     0.8345426
H           0.6471745     1.4539965     1.4572528
C           0.8805669     0.3692129    -0.3936983
C           2.0871715     1.1600435    -0.8415648
H           1.9989880     2.2056966    -0.5252837
H           2.1109529     1.1558028    -1.9416338
N           5.9346704    -0.5168752     0.1882867
H           5.9959097    -1.2407938    -0.5394445
H           6.8014521    -0.5792535     0.7336139
C           5.8309044     0.8441909    -0.4820835
H           6.6951061     0.9489496    -1.1426295
H           5.8796336     1.5838952     0.3193897
C           4.5029218     0.9262674    -1.2294375
H           4.5287695     0.2440834    -2.1057909
H           4.4152831     1.9433767    -1.6247801
N           3.3995928     0.6552941    -0.3321998
C           3.4607007    -0.6767384     0.2378562
H           3.4350410    -1.4892321    -0.5187839
H           2.6070968    -0.8388307     0.8987036
C           4.7295071    -0.8163228     1.0708181
H           4.8637280    -1.8256814     1.4673989
H           4.7558970    -0.0856852     1.8816527
30
017_C11H17N2+_10-11-23-24 (30,) energy =    -538.6695335
C           0.2695086    -0.7138760    -1.1872517
H           0.6599557    -0.9837615    -2.1660175
C          -0.8508941    -1.3781787    -0.6849767
H          -1.3226916    -2.1633413    -1.2686425
C          -1.3701991    -1.0249150     0.5613461
H          -2.2457897    -1.5369207     0.9495512
C          -0.7700239    -0.0031396     1.3018367
H          -1.1804570     0.2838486     2.2656691
C           0.3472663     0.6614016     0.7965508
H           0.8043573     1.4660712     1.3683166
C           0.8810362     0.3103315    -0.4523674
C           2.0935334     1.0301747    -0.9940404
H           2.0147076     2.1105335    -0.8261258
H           2.1273163     0.8738784    -2.0852205
N           5.9448373    -0.4618278     0.2370417
H           6.1101707    -1.1137580    -0.5406863
H           6.7695980    -0.5197777     0.8446506
C           5.8012604     0.9448274    -0.3226305
H           6.7031938     1.1604349    -0.9005144
H           5.7413821     1.6114596     0.5399920
C           4.5318924     1.0152064    -1.1654008
H           4.6660590     0.4163495    -2.0912079
H           4.4050356     2.0561914    -1.4807791
N           3.3832151     0.6015986    -0.3862845
C           3.4875516    -0.7690637     0.0782823
H           3.5638689    -1.5126320    -0.7434085
H           2.6000971    -1.0303543     0.6580872
C           4.6988609    -0.9077451     0.9915029
H           4.8669008    -1.9384716     1.3126482
H           4.6180333    -0.2513578     1.8603268
30
017_C11H17N2+_10-11-23-24 (45,) energy =    -538.6719393
C           0.1689879    -0.7462445    -1.1909308
H           0.4864461    -1.0541222    -2.1847228
C          -0.9691847    -1.3195373    -0.6191225
H          -1.5281425    -2.0720726    -1.1676250
C          -1.3886222    -0.9211301     0.6502624
H          -2.2758199    -1.3630670     1.0942554
C          -0.6699853     0.0553554     1.3461423
H          -1.0000331     0.3759986     2.3301411
C           0.4624175     0.6305348     0.7717486
H           1.0128762     1.3992301     1.3093093
C           0.8946130     0.2333852    -0.5031000
C           2.1165334     0.8684871    -1.1260303
H           2.0316474     1.9616470    -1.1157347
H           2.1812651     0.5592833    -2.1838710
N           5.9692172    -0.4028230     0.2981722
H           6.2284756    -0.9879057    -0.5065023
H           6.7558937    -0.4481537     0.9553435
C           5.7640941     1.0261238    -0.1805942
H           6.6832566     1.3374549    -0.6826124
H           5.6044546     1.6287740     0.7156500
C           4.5473894     1.0695289    -1.0994449
H           4.7744708     0.5300817    -2.0430464
H           4.3747822     2.1166495    -1.3692139
N           3.3794642     0.5452841    -0.4160626
C           3.5537014    -0.8496663    -0.0446263
H           3.7323707    -1.5151166    -0.9157870
H           2.6503115    -1.2113227     0.4513792
C           4.7118156    -0.9803569     0.9356522
H           4.9287733    -2.0191786     1.1953684
H           4.5325019    -0.3963376     1.8405413
30
017_C11H17N2+_10-11-23-24 (60,) energy =    -538.6732091
C           0.0949003    -0.7963419    -1.1695731
H           0.3693301    -1.1713031    -2.1531926
C          -1.0622584    -1.2699700    -0.5462697
H          -1.6785150    -2.0129195    -1.0441256
C          -1.4245652    -0.7867334     0.7108262
H          -2.3253384    -1.1514907     1.1957420
C          -0.6288699     0.1734971     1.3429884
H          -0.9126581     0.5579026     2.3185953
C           0.5224494     0.6486860     0.7178410
H           1.1363908     1.4009913     1.2069930
C           0.8952040     0.1678056    -0.5463430
C           2.1331172     0.7037045    -1.2319374
H           2.0538432     1.7898250    -1.3616746
H           2.2205059     0.2647509    -2.2413695
N           5.9821972    -0.3512946     0.3424950
H           6.3365338    -0.8392909    -0.4900877
H           6.7294951    -0.3951980     1.0442742
C           5.6892264     1.0953397    -0.0255167
H           6.6078277     1.5195732    -0.4376829
H           5.4284589     1.6011571     0.9062294
C           4.5290664     1.1302077    -1.0149909
H           4.8506833     0.6860289    -1.9802035
H           4.2949982     2.1811673    -1.2128571
N           3.3651856     0.4708767    -0.4451393
C           3.6341713    -0.9373974    -0.1918480
H           3.9105635    -1.4945644    -1.1115939
H           2.7337228    -1.4097371     0.2097916
C           4.7414319    -1.0791947     0.8433606
H           5.0248449    -2.1196602     1.0185124
H           4.4656340    -0.6018906     1.7857644
30
017_C11H17N2+_10-11-23-24 (75,) energy =    -538.6725126
C           0.0120798    -0.8482303    -1.1265891
H           0.2509653    -1.2985615    -2.0877445
C          -1.1647016    -1.2098555    -0.4658498
H          -1.8310380    -1.9424176    -0.9119130
C          -1.4799214    -0.6306984     0.7628540
H          -2.3946905    -0.9088433     1.2780573
C          -0.6167744     0.3124651     1.3289167
H          -0.8618278     0.7696751     2.2834395
C           0.5544104     0.6748602     0.6668378
H           1.2235240     1.4091675     1.1080145
C           0.8787169     0.0988758    -0.5699312
C           2.1368152     0.5149740    -1.3034766
H           2.0775534     1.5785715    -1.5650046
H           2.2316752    -0.0395669    -2.2522337
N           5.9968200    -0.3095722     0.3725421
H           6.4349101    -0.6808966    -0.4800741
H           6.7111226    -0.3529798     1.1079215
C           5.5851109     1.1338581     0.1228792
H           6.4774849     1.6764002    -0.1979060
H           5.2352697     1.5218598     1.0816222
C           4.4724934     1.1615652    -0.9200568
H           4.8762168     0.8366199    -1.9014969
H           4.1561948     2.2029098    -1.0355802
N           3.3471195     0.3561384    -0.4664202
C           3.7400629    -1.0407797    -0.3377628
H           4.1036129    -1.4711364    -1.2938506
H           2.8700331    -1.6292852    -0.0304883
C           4.8093532    -1.1913396     0.7354194
H           5.1801411    -2.2152866     0.8228385
H           4.4495686    -0.8391295     1.7041538
30
017_C11H17N2+_10-11-23-24 (90,) energy =    -538.6699565
C          -0.0687902    -0.8787161    -1.0837793
H           0.1371686    -1.4018674    -2.0153272
C          -1.2665657    -1.1196030    -0.4061313
H          -1.9812868    -1.8313650    -0.8089101
C          -1.5394944    -0.4487454     0.7853088
H          -2.4696789    -0.6334769     1.3146600
C          -0.6121613     0.4642023     1.2966101
H          -0.8226176     0.9911551     2.2230532
C           0.5802763     0.7052531     0.6174970
H           1.3004638     1.4127666     1.0203439
C           0.8618643     0.0375700    -0.5822207
C           2.1394659     0.3242126    -1.3455849
H           2.1072848     1.3495058    -1.7346601
H           2.2255792    -0.3352238    -2.2228768
N           6.0301426    -0.2144891     0.3922286
H           6.5371282    -0.4467260    -0.4713493
H           6.7197735    -0.2487489     1.1512413
C           5.4595217     1.1903724     0.2625958
H           6.2916433     1.8601294     0.0332549
H           5.0358320     1.4390009     1.2376962
C           4.3848188     1.1938299    -0.8196759
H           4.8552522     1.0097930    -1.8078463
H           3.9572166     2.2003394    -0.8527376
N           3.3447136     0.2288594    -0.4859849
C           3.8953481    -1.1197005    -0.4780961
H           4.3322789    -1.4080727    -1.4561112
H           3.0930430    -1.8322014    -0.2606642
C           4.9440508    -1.2574430     0.6181082
H           5.4289266    -2.2364690     0.6202792
H           4.5167091    -1.0485076     1.6007812
30
017_C11H17N2+_10-11-23-24 (105,) energy =    -538.6671058
C          -0.2247941    -0.9148397    -1.1322884
H          -0.1328345    -1.4339879    -2.0842018
C          -1.4491663    -0.9157779    -0.4624515
H          -2.2992697    -1.4369724    -0.8930359
C          -1.5764371    -0.2566011     0.7608673
H          -2.5270377    -0.2591067     1.2860848
C          -0.4741122     0.4023202     1.3092795
H          -0.5661934     0.9145780     2.2629977
C           0.7474759     0.4062802     0.6356967
H           1.6053024     0.9105112     1.0716005
C           0.8825190    -0.2495828    -0.5931040
C           2.1806640    -0.2058322    -1.3806523
H           2.1958947     0.6985162    -2.0038817
H           2.2261084    -1.0477962    -2.0850884
N           6.0920544    -0.3188798     0.4010334
H           6.6319524    -0.4904802    -0.4569265
H           6.7726453    -0.2778272     1.1678449
C           5.3693340     1.0134523     0.2659292
H           6.1241975     1.7726908     0.0482925
H           4.9078356     1.2107631     1.2355655
C           4.3174751     0.8988493    -0.8327009
H           4.8218817     0.7805194    -1.8142346
H           3.7750106     1.8481373    -0.8649809
N           3.3930192    -0.1837214    -0.5263617
C           4.0874904    -1.4622744    -0.5012484
H           4.5713555    -1.7087157    -1.4687239
H           3.3689034    -2.2597267    -0.2882221
C           5.1280386    -1.4776220     0.6125112
H           5.7204924    -2.3955011     0.6246881
H           4.6638033    -1.3175209     1.5875983
30
017_C11H17N2+_10-11-23-24 (120,) energy =    -538.6666116
C          -0.2338761    -0.1407863    -1.2903028
H          -0.1942604    -0.0985107    -2.3769849
C          -1.4415822     0.1012975    -0.6354580
H          -2.3313377     0.3329418    -1.2137425
C          -1.5028255     0.0548548     0.7583960
H          -2.4412097     0.2468290     1.2702688
C          -0.3504727    -0.2344830     1.4908546
H          -0.3903411    -0.2689068     2.5761122
C           0.8557611    -0.4804850     0.8331684
H           1.7524810    -0.6940716     1.4080259
C           0.9248748    -0.4392084    -0.5629251
C           2.2057662    -0.7632900    -1.3163025
H           2.2204538    -0.2316159    -2.2775263
H           2.2138066    -1.8306283    -1.5772332
N           6.0643777     0.0039987     0.4146923
H           6.6443081    -0.1958756    -0.4107353
H           6.7113965     0.2700571     1.1652714
C           5.1314566     1.1624047     0.0900722
H           5.7542694     2.0025765    -0.2261699
H           4.6130491     1.4076531     1.0190994
C           4.1501551     0.7165804    -0.9890298
H           4.6931407     0.5795218    -1.9477262
H           3.4359766     1.5317859    -1.1386035
N           3.4409073    -0.4723289    -0.5623245
C           4.3176675    -1.5991625    -0.3132091
H           4.8818385    -1.9266617    -1.2122245
H           3.7290999    -2.4575190     0.0227132
C           5.3058334    -1.2583808     0.7986715
H           6.0455201    -2.0460835     0.9603620
H           4.7896080    -1.0311035     1.7335357
30
017_C11H17N2+_10-11-23-24 (135,) energy =    -538.6691396
C           0.2089901     0.3203639    -1.3658962
H           0.4842430     0.5328565    -2.3969032
C          -0.9951939     0.8126873    -0.8558355
H          -1.6450830     1.4101646    -1.4885402
C          -1.3578875     0.5374563     0.4618899
H          -2.2935721     0.9172317     0.8616888
C          -0.5134743    -0.2320692     1.2681696
H          -0.7949121    -0.4528214     2.2940271
C           0.6855857    -0.7231264     0.7563641
H           1.3387927    -1.3199110     1.3885963
C           1.0575930    -0.4541885    -0.5679516
C           2.3450659    -1.0143783    -1.1413694
H           2.4840805    -0.6728693    -2.1781672
H           2.2799564    -2.1083279    -1.1895316
N           6.0344836    -0.0664185     0.8474552
H           6.6762579    -0.1878779     0.0530908
H           6.6134984     0.2120833     1.6473616
C           5.0395282     1.0359411     0.5096512
H           5.6172572     1.9313608     0.2682002
H           4.4481124     1.2016402     1.4122204
C           4.1620508     0.5679231    -0.6462533
H           4.7670728     0.5183651    -1.5759383
H           3.3909880     1.3285506    -0.8045301
N           3.5265928    -0.6898787    -0.3162606
C           4.4664888    -1.7605213    -0.0578830
H           5.1140911    -2.0058610    -0.9268753
H           3.9248229    -2.6747791     0.2006233
C           5.3508401    -1.3963398     1.1318282
H           6.1366061    -2.1332405     1.3146443
H           4.7571098    -1.2466096     2.0357409
30
017_C11H17N2+_10-11-23-24 (150,) energy =    -538.6716483
C           0.2527012     0.2661224    -1.4089506
H           0.5554712     0.4005208    -2.4452832
C          -0.9411842     0.8348467    -0.9576829
H          -1.5562305     1.4130941    -1.6410524
C          -1.3388922     0.6595002     0.3671252
H          -2.2671303     1.0990211     0.7203768
C          -0.5407388    -0.0867952     1.2397094
H          -0.8503267    -0.2300027     2.2711748
C           0.6479545    -0.6552280     0.7869264
H           1.2665739    -1.2351869     1.4672641
C           1.0547474    -0.4866197    -0.5442225
C           2.3307499    -1.1312477    -1.0476640
H           2.4934734    -0.8830330    -2.1093150
H           2.2380597    -2.2228335    -0.9947439
N           6.0483292    -0.0194584     0.7864670
H           6.6301656    -0.0092636    -0.0612872
H           6.6653956     0.2392950     1.5643166
C           4.9371877     1.0103596     0.6297217
H           5.4131078     1.9731294     0.4290783
H           4.4122611     1.0428984     1.5864268
C           4.0097806     0.5636550    -0.4935015
H           4.5401393     0.6352163    -1.4661901
H           3.1695889     1.2639899    -0.5328586
N           3.5020904    -0.7684434    -0.2251638
C           4.5549097    -1.7633293    -0.1531373
H           5.1369983    -1.8634149    -1.0937604
H           4.1202823    -2.7453142     0.0561818
C           5.5065108    -1.4268054     0.9914880
H           6.3641440    -2.1020263     1.0392872
H           4.9834305    -1.4154234     1.9497658
30
017_C11H17N2+_10-11-23-24 (165,) energy =    -538.6731463
C           0.3009694     0.2082028    -1.4258826
H           0.6484613     0.2686441    -2.4550001
C          -0.8770522     0.8605168    -1.0534146
H          -1.4358144     1.4284889    -1.7915054
C          -1.3322038     0.7802252     0.2623019
H          -2.2488304     1.2846715     0.5536828
C          -0.6077899     0.0444944     1.2051177
H          -0.9630764    -0.0255753     2.2293341
C           0.5646149    -0.6092934     0.8311394
H           1.1243067    -1.1851532     1.5639138
C           1.0293885    -0.5347984    -0.4901719
C           2.2876952    -1.2697559    -0.9015693
H           2.4812118    -1.1170457    -1.9774345
H           2.1568571    -2.3485068    -0.7528351
N           6.0529434    -0.0264344     0.7331342
H           6.5513971     0.0939834    -0.1578709
H           6.7208000     0.2133836     1.4742382
C           4.8659067     0.9279009     0.7616493
H           5.2557558     1.9352262     0.5976633
H           4.4346398     0.8507170     1.7616435
C           3.8665449     0.5021442    -0.3052520
H           4.3034411     0.6660583    -1.3126159
H           2.9902773     1.1520406    -0.2259757
N           3.4580390    -0.8770733    -0.0877364
C           4.5836401    -1.7884270    -0.2105980
H           5.0640391    -1.7581052    -1.2110322
H           4.2424252    -2.8165856    -0.0541701
C           5.6237745    -1.4805606     0.8618766
H           6.5219619    -2.0952564     0.7667362
H           5.2013303    -1.5865773     1.8630417
30
017_C11H17N2+_10-11-23-24 (180,) energy =    -538.6728568
C           0.4021106     0.1716154    -1.4208615
H           0.8074200     0.1780397    -2.4303227
C          -0.7486611     0.9095512    -1.1330527
H          -1.2286715     1.4891066    -1.9162079
C          -1.2804055     0.8976027     0.1563397
H          -2.1767922     1.4680043     0.3815275
C          -0.6610122     0.1434497     1.1574163
H          -1.0776999     0.1246696     2.1604402
C           0.4836860    -0.5967165     0.8672837
H           0.9581843    -1.1902773     1.6450435
C           1.0273479    -0.5893611    -0.4262968
C           2.2603072    -1.4065808    -0.7399193
H           2.4645547    -1.3630455    -1.8241312
H           2.0974415    -2.4607344    -0.4855016
N           6.0753720    -0.0076859     0.6457511
H           6.4736415     0.2196886    -0.2742002
H           6.7975884     0.2186726     1.3386182
C           4.8384231     0.8526028     0.8685579
H           5.1431713     1.8952565     0.7519532
H           4.5186718     0.6685985     1.8961748
C           3.7617033     0.4411876    -0.1254255
H           4.0868916     0.6970982    -1.1553648
H           2.8671547     1.0332322     0.0833153
N           3.4522518    -0.9759142     0.0330481
C           4.6205422    -1.7826006    -0.2926267
H           4.9753833    -1.6249802    -1.3321547
H           4.3697427    -2.8445408    -0.2011862
C           5.7523111    -1.4931302     0.6870791
H           6.6696422    -2.0343700     0.4436698
H           5.4502718    -1.7120589     1.7131851
