30
017_C11H17N2+_0-10-11-23 (-165,) energy =    -538.6703213
C          -0.0160819    -0.2693593    -1.5354149
H           0.1769473    -0.2956155    -2.6059518
C          -1.3160972    -0.4490351    -1.0658234
H          -2.1261748    -0.6104726    -1.7710593
C          -1.5755253    -0.4235078     0.3065510
H          -2.5874808    -0.5672943     0.6734195
C          -0.5289043    -0.2045606     1.2017720
H          -0.7241306    -0.1695569     2.2699968
C           0.7719032    -0.0142904     0.7293277
H           1.5770372     0.1945240     1.4279571
C           1.0439370    -0.0635800    -0.6424582
C           2.4243918     0.2267316    -1.2077931
H           2.4539629     1.2686953    -1.5515965
H           2.6066247    -0.3972894    -2.1008306
N           6.0049188    -0.6462547     0.9731578
H           6.5013521    -1.1315424     0.2149294
H           6.6343911    -0.6544068     1.7835265
C           5.7242111     0.7846664     0.5388800
H           6.6810608     1.2376799     0.2691771
H           5.3023513     1.2912458     1.4092752
C           4.7348082     0.7684499    -0.6214551
H           5.2175300     0.3196524    -1.5143411
H           4.5062708     1.8087987    -0.8726878
N           3.5142392     0.0816869    -0.2272015
C           3.7866789    -1.3145560     0.0947593
H           4.2158666    -1.8710883    -0.7639170
H           2.8498615    -1.8110954     0.3625479
C           4.7263762    -1.4104115     1.2890168
H           5.0108273    -2.4397248     1.5194080
H           4.2970211    -0.9353411     2.1734292
30
017_C11H17N2+_0-10-11-23 (-150,) energy =    -538.6720294
C           0.0465844    -0.4211798    -1.4988620
H           0.2809104    -0.5599638    -2.5520959
C          -1.2464835    -0.6757112    -1.0406246
H          -2.0096199    -1.0099287    -1.7374303
C          -1.5560744    -0.5058374     0.3097930
H          -2.5612794    -0.7072433     0.6681590
C          -0.5689739    -0.0716993     1.1966010
H          -0.8061962     0.0717280     2.2471052
C           0.7212622     0.1928837     0.7354570
H           1.4822781     0.5530503     1.4222802
C           1.0441421     0.0092503    -0.6156944
C           2.4137276     0.3722180    -1.1584726
H           2.4424756     1.4453873    -1.3882702
H           2.5932063    -0.1563551    -2.1113384
N           5.9690642    -0.7652034     0.9441384
H           6.4347859    -1.2417963     0.1613214
H           6.6046303    -0.8367916     1.7465663
C           5.7536628     0.6940574     0.5715844
H           6.7286330     1.1114272     0.3092628
H           5.3654927     1.1840914     1.4667573
C           4.7531161     0.7723645    -0.5766126
H           5.2053727     0.3398136    -1.4932275
H           4.5702428     1.8316896    -0.7825905
N           3.5059045     0.1266444    -0.1976646
C           3.7139116    -1.2925733     0.0623516
H           4.1086535    -1.8338120    -0.8223907
H           2.7563893    -1.7535733     0.3203735
C           4.6578905    -1.4804351     1.2419991
H           4.8954827    -2.5302496     1.4288410
H           4.2578797    -1.0209095     2.1480672
30
017_C11H17N2+_0-10-11-23 (-135,) energy =    -538.6729770
C           0.1451210    -0.5563487    -1.4372292
H           0.4339873    -0.7997541    -2.4573078
C          -1.1327967    -0.8885308    -0.9825199
H          -1.8290701    -1.3898548    -1.6484584
C          -1.5112014    -0.5791959     0.3240317
H          -2.5042766    -0.8377778     0.6796518
C          -0.6095141     0.0684113     1.1728883
H          -0.9027849     0.3182671     2.1886837
C           0.6633054     0.4069291     0.7154946
H           1.3596803     0.9217384     1.3723070
C           1.0541066     0.0932203    -0.5944133
C           2.4139662     0.5090788    -1.1169489
H           2.4452196     1.5977936    -1.2519194
H           2.5875924     0.0612428    -2.1111548
N           5.9526111    -0.8437272     0.8895122
H           6.3935546    -1.3026161     0.0821617
H           6.5933182    -0.9708398     1.6808709
C           5.7845370     0.6364048     0.5804654
H           6.7706677     1.0301621     0.3233240
H           5.4239892     1.1016395     1.5000618
C           4.7741164     0.7968221    -0.5505870
H           5.2011005     0.3892345    -1.4905866
H           4.6243415     1.8694483    -0.7096481
N           3.5104501     0.1770851    -0.1835683
C           3.6725544    -1.2576450     0.0111728
H           4.0415573    -1.7735893    -0.8996856
H           2.7026360    -1.6977705     0.2589097
C           4.6203809    -1.5260301     1.1719010
H           4.8241749    -2.5899772     1.3132840
H           4.2439303    -1.0904206     2.0995839
30
017_C11H17N2+_0-10-11-23 (-120,) energy =    -538.6732304
C           0.2503456    -0.6720950    -1.3482622
H           0.6090751    -1.0128743    -2.3171297
C          -1.0096589    -1.0720732    -0.8961714
H          -1.6213515    -1.7256842    -1.5111845
C          -1.4794242    -0.6298033     0.3402467
H          -2.4599000    -0.9372581     0.6919919
C          -0.6878959     0.2157921     1.1234291
H          -1.0539511     0.5686682     2.0834171
C           0.5668516     0.6173564     0.6692648
H           1.1785749     1.2804812     1.2760477
C           1.0477354     0.1775985    -0.5730791
C           2.4029129     0.6314420    -1.0701972
H           2.4393523     1.7264603    -1.1179892
H           2.5717247     0.2592189    -2.0958705
N           5.9321730    -0.9002627     0.8284774
H           6.3542780    -1.3314297    -0.0038404
H           6.5775931    -1.0780832     1.6060897
C           5.7952667     0.5958599     0.5891698
H           6.7876238     0.9782960     0.3389085
H           5.4552403     1.0264522     1.5331003
C           4.7764401     0.8301512    -0.5215277
H           5.1845055     0.4577487    -1.4843650
H           4.6485611     1.9120068    -0.6292856
N           3.5035095     0.2212970    -0.1688534
C           3.6357227    -1.2234026    -0.0444950
H           3.9868116    -1.7045120    -0.9814548
H           2.6592111    -1.6554833     0.1907123
C           4.5874283    -1.5648400     1.0935655
H           4.7688626    -2.6382839     1.1850455
H           4.2287507    -1.1628822     2.0431733
30
017_C11H17N2+_0-10-11-23 (-105,) energy =    -538.6727975
C           0.3669694    -0.7828291    -1.2208136
H           0.8059858    -1.2211851    -2.1149109
C          -0.8794356    -1.2273381    -0.7730819
H          -1.3983291    -2.0146621    -1.3121119
C          -1.4580456    -0.6529720     0.3587807
H          -2.4299523    -0.9922777     0.7049938
C          -0.7885279     0.3665878     1.0417711
H          -1.2403639     0.8215110     1.9185758
C           0.4548026     0.8083777     0.5932378
H           0.9719623     1.6039992     1.1243927
C           1.0434485     0.2411887    -0.5461435
C           2.4013081     0.7139291    -1.0144405
H           2.4488424     1.8082214    -0.9889204
H           2.5664079     0.4062919    -2.0620205
N           5.9280881    -0.9687242     0.7674770
H           6.3419340    -1.3532032    -0.0914336
H           6.5757945    -1.1980272     1.5295269
C           5.8028228     0.5398354     0.6182083
H           6.7970029     0.9284160     0.3851213
H           5.4714734     0.9164245     1.5879520
C           4.7800639     0.8480094    -0.4704649
H           5.1797457     0.5305760    -1.4563905
H           4.6619054     1.9355072    -0.5124770
N           3.5033713     0.2306160    -0.1472719
C           3.6238503    -1.2191379    -0.1104607
H           3.9660256    -1.6472694    -1.0763373
H           2.6459253    -1.6582585     0.1047616
C           4.5785683    -1.6356626     0.9999511
H           4.7505793    -2.7142309     1.0264337
H           4.2283093    -1.2875759     1.9736636
30
017_C11H17N2+_0-10-11-23 (-90,) energy =    -538.6715135
C           0.2815766     0.1208737     1.2614341
H           0.6821030     0.1554441     2.2719318
C          -0.8799906     0.8276009     0.9525208
H          -1.3817809     1.4060214     1.7228126
C          -1.4056209     0.7790691    -0.3408411
H          -2.3145005     1.3235393    -0.5796466
C          -0.7711317     0.0134814    -1.3200208
H          -1.1875300    -0.0462756    -2.3214109
C           0.3896389    -0.6961162    -1.0064399
H           0.8564144    -1.3228767    -1.7641716
C           0.9401067    -0.6345137     0.2816443
C           2.1772769    -1.4278888     0.6393942
H           2.2128990    -2.3557757     0.0409306
H           2.1356975    -1.7245268     1.6921622
N           6.0748124     0.1249722    -0.2978166
H           6.3796196    -0.6390740    -0.9143858
H           6.8523657     0.7932486    -0.2575069
C           4.8425825     0.7813867    -0.9060168
H           5.1099284     1.0984308    -1.9167639
H           4.6216787     1.6521953    -0.2856507
C           3.6904158    -0.2141971    -0.8879922
H           3.9107514    -1.0513975    -1.5841353
H           2.8039839     0.2968752    -1.2726465
N           3.4387041    -0.6611678     0.4726289
C           4.5898060    -1.3737206     1.0043702
H           4.8550197    -2.2747523     0.4121231
H           4.3721205    -1.7169066     2.0207904
C           5.7953569    -0.4431055     1.0849883
H           6.7017432    -0.9549399     1.4170134
H           5.5902126     0.4124819     1.7314261
30
017_C11H17N2+_0-10-11-23 (-75,) energy =    -538.6728020
C           0.4411207     0.2359747     1.1566669
H           0.9512676     0.3716647     2.1074270
C          -0.7047935     0.9762888     0.8723687
H          -1.0879197     1.6832814     1.6026242
C          -1.3690816     0.7989152    -0.3448254
H          -2.2665978     1.3702209    -0.5631715
C          -0.8839891    -0.1223753    -1.2729342
H          -1.4031139    -0.2731540    -2.2149740
C           0.2649577    -0.8632436    -0.9853705
H           0.6266127    -1.5960766    -1.7039684
C           0.9423859    -0.6872225     0.2275781
C           2.1760503    -1.4994412     0.5528665
H           2.2300751    -2.3822793    -0.1081911
H           2.1213931    -1.8704554     1.5822024
N           6.0499004     0.1823520    -0.2249662
H           6.3796353    -0.5391270    -0.8788560
H           6.8120041     0.8636227    -0.1361564
C           4.8117460     0.8457287    -0.8140615
H           5.0859182     1.2240318    -1.8016349
H           4.5634791     1.6759402    -0.1499163
C           3.6828667    -0.1744865    -0.8672614
H           3.9314017    -0.9673062    -1.6041716
H           2.7873121     0.3337283    -1.2350976
N           3.4239385    -0.7026335     0.4637382
C           4.5828547    -1.4200310     0.9710928
H           4.8758960    -2.2801909     0.3331914
H           4.3588575    -1.8242865     1.9634670
C           5.7656079    -0.4686668     1.1200679
H           6.6793280    -0.9777152     1.4358068
H           5.5325016     0.3446756     1.8101062
30
017_C11H17N2+_0-10-11-23 (-60,) energy =    -538.6732399
C           0.5985376     0.3531549     1.0041767
H           1.2292843     0.5923817     1.8568369
C          -0.5508747     1.1006304     0.7548736
H          -0.8163479     1.9207914     1.4159052
C          -1.3675910     0.7884855    -0.3361571
H          -2.2666935     1.3674711    -0.5258662
C          -1.0281940    -0.2717881    -1.1762285
H          -1.6605049    -0.5218156    -2.0231456
C           0.1268771    -1.0174042    -0.9278132
H           0.3835680    -1.8482749    -1.5814460
C           0.9480831    -0.7146815     0.1642656
C           2.1838294    -1.5392057     0.4524177
H           2.2544368    -2.3744499    -0.2661642
H           2.1161654    -1.9836834     1.4527271
N           6.0459260     0.2308046    -0.1430984
H           6.3967456    -0.4462687    -0.8325418
H           6.7973263     0.9147556     0.0000065
C           4.8099034     0.9134043    -0.7145260
H           5.0963447     1.3538183    -1.6724146
H           4.5389643     1.6992027    -0.0066277
C           3.6961299    -0.1156557    -0.8490680
H           3.9681055    -0.8604759    -1.6261384
H           2.7992166     0.4013179    -1.2011726
N           3.4209213    -0.7262957     0.4438895
C           4.5801426    -1.4586172     0.9291127
H           4.8959448    -2.2747255     0.2461330
H           4.3436512    -1.9245658     1.8910639
C           5.7468600    -0.5026968     1.1557298
H           6.6617608    -1.0179318     1.4576240
H           5.4906294     0.2652461     1.8882933
30
017_C11H17N2+_0-10-11-23 (-45,) energy =    -538.6728788
C           0.7234673     0.4562367     0.8205564
H           1.4623113     0.7836894     1.5472455
C          -0.4411224     1.1975297     0.6239508
H          -0.6069239     2.1048187     1.1980922
C          -1.3973675     0.7706382    -0.3011820
H          -2.3061424     1.3463110    -0.4503617
C          -1.1805136    -0.3976663    -1.0321415
H          -1.9180566    -0.7344310    -1.7547817
C          -0.0101403    -1.1348899    -0.8409307
H           0.1551359    -2.0427495    -1.4169002
C           0.9473431    -0.7209711     0.0921188
C           2.1940758    -1.5513623     0.3212451
H           2.2801582    -2.3239038    -0.4628136
H           2.1179199    -2.0826342     1.2787843
N           6.0570414     0.2671415    -0.0596821
H           6.4338738    -0.3740670    -0.7693803
H           6.7989218     0.9474695     0.1395385
C           4.8347391     0.9700702    -0.6357911
H           5.1467899     1.4560691    -1.5631096
H           4.5388704     1.7212290     0.0992634
C           3.7312209    -0.0561937    -0.8519164
H           4.0288247    -0.7614536    -1.6556392
H           2.8416060     0.4740661    -1.2028896
N           3.4211374    -0.7325219     0.4009359
C           4.5710114    -1.4804188     0.8849028
H           4.9132597    -2.2600722     0.1728659
H           4.3095596    -1.9940195     1.8155367
C           5.7229051    -0.5294540     1.1926449
H           6.6314987    -1.0535725     1.4982123
H           5.4387027     0.2009941     1.9527628
30
017_C11H17N2+_0-10-11-23 (-30,) energy =    -538.6717638
C           0.8039902     0.5390907     0.6329340
H           1.6221122     0.9399838     1.2248360
C          -0.3805561     1.2646180     0.4949552
H          -0.4758683     2.2369919     0.9701857
C          -1.4424317     0.7409772    -0.2442152
H          -2.3645698     1.3049339    -0.3491883
C          -1.3123917    -0.5100798    -0.8500075
H          -2.1318445    -0.9227293    -1.4312472
C          -0.1244455    -1.2298623    -0.7205387
H          -0.0269313    -2.1989915    -1.2051145
C           0.9400648    -0.7191543     0.0324609
C           2.2053384    -1.5439234     0.1847228
H           2.3049593    -2.2381814    -0.6680903
H           2.1289863    -2.1690605     1.0843215
N           6.0716718     0.2949511     0.0342184
H           6.4779716    -0.3183859    -0.6838171
H           6.8033540     0.9680125     0.2883868
C           4.8713451     1.0180339    -0.5621094
H           5.2174355     1.5380608    -1.4583530
H           4.5469825     1.7421397     0.1879669
C           3.7788730    -0.0000403    -0.8588204
H           4.1077284    -0.6737008    -1.6770275
H           2.9022621     0.5433002    -1.2223556
N           3.4216623    -0.7272731     0.3533149
C           4.5553074    -1.4903606     0.8522833
H           4.9284933    -2.2406355     0.1245484
H           4.2606513    -2.0399153     1.7517832
C           5.6901443    -0.5488733     1.2412676
H           6.5874425    -1.0823341     1.5635194
H           5.3728164     0.1517703     2.0162245
30
017_C11H17N2+_0-10-11-23 (-15,) energy =    -538.6700100
C           0.8600301     0.5919286     0.4571971
H           1.7308063     1.0473769     0.9199418
C          -0.3399654     1.3037071     0.3798814
H          -0.3883580     2.3206936     0.7591765
C          -1.4729177     0.7106746    -0.1756195
H          -2.4056364     1.2636826    -0.2348677
C          -1.4007521    -0.5988447    -0.6572007
H          -2.2770681    -1.0680839    -1.0948645
C          -0.2009818    -1.3045944    -0.5878923
H          -0.1507920    -2.3191901    -0.9778958
C           0.9384938    -0.7217378    -0.0171568
C           2.2191984    -1.5390083     0.0420582
H           2.3286880    -2.1320977    -0.8828975
H           2.1417757    -2.2658239     0.8612162
N           6.0982010     0.2730440     0.1564848
H           6.5381983    -0.3201121    -0.5586613
H           6.8192721     0.9324946     0.4698360
C           4.9350365     1.0233931    -0.4776428
H           5.3295326     1.5677508    -1.3387642
H           4.5778344     1.7273770     0.2767110
C           3.8533982     0.0227056    -0.8614120
H           4.2206910    -0.6278047    -1.6818621
H           3.0004519     0.5831432    -1.2540665
N           3.4291184    -0.7413812     0.3063556
C           4.5322211    -1.5276584     0.8373569
H           4.9397279    -2.2560186     0.1058591
H           4.1900717    -2.1033900     1.7027932
C           5.6493459    -0.6057126     1.3146067
H           6.5258453    -1.1546994     1.6665847
H           5.2946521     0.0723668     2.0934413
30
017_C11H17N2+_0-10-11-23 (0,) energy =    -538.6679732
C           0.8932397     0.4871699     0.6208505
H           1.8022269     1.0115465     0.9004323
C          -0.3336759     0.9003940     1.1484956
H          -0.3632330     1.7193065     1.8618889
C          -1.5135084     0.2701228     0.7581588
H          -2.4666858     0.5908782     1.1678079
C          -1.4624454    -0.7768272    -0.1662460
H          -2.3763107    -1.2738454    -0.4785082
C          -0.2386216    -1.1906020    -0.6872866
H          -0.2085566    -2.0139068    -1.3983896
C           0.9523833    -0.5559782    -0.3073064
C           2.2573098    -1.0791089    -0.8905422
H           2.2350870    -0.9405422    -1.9784063
H           2.3313667    -2.1686293    -0.7279028
N           6.1256283     0.1133463     0.5154595
H           6.5842402    -0.8030680     0.4329011
H           6.8348928     0.7607129     0.8772201
C           5.6633193     0.5562483    -0.8649008
H           6.5385536     0.5526520    -1.5187233
H           5.2857541     1.5742041    -0.7492982
C           4.5651467    -0.3851992    -1.3484014
H           4.9947086    -1.3922020    -1.5306241
H           4.2138256    -0.0086935    -2.3137272
N           3.4648741    -0.3948118    -0.3967814
C           3.9023772    -0.9110267     0.8950281
H           4.2903569    -1.9483749     0.8266254
H           3.0525886    -0.9331545     1.5827912
C           4.9685736    -0.0051221     1.4974768
H           5.3744078    -0.3974647     2.4328469
H           4.5921882     1.0083778     1.6504602
30
017_C11H17N2+_0-10-11-23 (15,) energy =    -538.6700103
C           0.8777246     0.6064919     0.4698917
H           1.7615018     1.2196151     0.6213005
C          -0.3329307     0.9695650     1.0658451
H          -0.3768786     1.8495979     1.7014926
C          -1.4810739     0.2108931     0.8419728
H          -2.4222767     0.4932376     1.3042709
C          -1.4133449    -0.9166226     0.0197965
H          -2.3015166    -1.5158859    -0.1582668
C          -0.2033816    -1.2829939    -0.5666949
H          -0.1583473    -2.1705481    -1.1945751
C           0.9522033    -0.5177736    -0.3590966
C           2.2433747    -0.9562203    -1.0315846
H           2.2067627    -0.6750042    -2.0921222
H           2.3222098    -2.0575029    -1.0103566
N           6.1026083     0.0369515     0.5374008
H           6.5196113    -0.8990497     0.4543209
H           6.8284428     0.6432733     0.9355844
C           5.7115769     0.5244282    -0.8497701
H           6.6080559     0.4885830    -1.4731164
H           5.3805656     1.5578654    -0.7288956
C           4.5869666    -0.3538586    -1.3878983
H           4.9729417    -1.3776045    -1.5741648
H           4.2873001     0.0544889    -2.3579305
N           3.4539799    -0.3279895    -0.4754388
C           3.8210028    -0.8863153     0.8211077
H           4.1614654    -1.9397855     0.7469259
H           2.9463003    -0.8776521     1.4772997
C           4.9061235    -0.0420403     1.4756268
H           5.2590948    -0.4675436     2.4178927
H           4.5721379     0.9855970     1.6325653
30
017_C11H17N2+_0-10-11-23 (30,) energy =    -538.6717637
C           0.8403124     0.7275182     0.3123279
H           1.6766954     1.4202005     0.3451307
C          -0.3592990     1.0472647     0.9505835
H          -0.4483010     1.9853989     1.4913154
C          -1.4432610     0.1701277     0.8887627
H          -2.3770707     0.4206566     1.3833845
C          -1.3204757    -1.0322353     0.1899439
H          -2.1571833    -1.7229794     0.1407518
C          -0.1180388    -1.3560018    -0.4387477
H          -0.0268208    -2.3001476    -0.9714736
C           0.9693177    -0.4745954    -0.3950130
C           2.2509525    -0.8394884    -1.1219889
H           2.2189276    -0.4378017    -2.1435002
H           2.3261742    -1.9365699    -1.2219767
N           6.0826349    -0.0439323     0.6207937
H           6.4670541    -0.9925258     0.5247436
H           6.8151068     0.5222857     1.0633494
C           5.7626885     0.4981879    -0.7642547
H           6.6795280     0.4441737    -1.3559058
H           5.4685558     1.5403269    -0.6242841
C           4.6252625    -0.3184342    -1.3683254
H           4.9777203    -1.3506563    -1.5734655
H           4.3756043     0.1297029    -2.3351591
N           3.4617569    -0.2766343    -0.4959001
C           3.7589311    -0.8876259     0.7941654
H           4.0627533    -1.9508269     0.7006255
H           2.8609437    -0.8635517     1.4177507
C           4.8490672    -0.1037192     1.5118381
H           5.1506785    -0.5671934     2.4540046
H           4.5464215     0.9310138     1.6847447
30
017_C11H17N2+_0-10-11-23 (45,) energy =    -538.6728787
C           0.7686260     0.8397956     0.1364951
H           1.5321361     1.6059252     0.0302964
C          -0.4133802     1.1203018     0.8210477
H          -0.5683607     2.1065006     1.2496577
C          -1.4007722     0.1397616     0.9476119
H          -2.3228391     0.3608960     1.4771494
C          -1.1978898    -1.1234932     0.3913709
H          -1.9597696    -1.8914901     0.4878531
C          -0.0103876    -1.4062876    -0.2866152
H           0.1440381    -2.3943359    -0.7146254
C           0.9787739    -0.4264042    -0.4283891
C           2.2454978    -0.7315307    -1.2021634
H           2.2163609    -0.2305405    -2.1784188
H           2.3101628    -1.8149236    -1.4047412
N           6.0635337    -0.1372303     0.6535128
H           6.4203809    -1.0929847     0.5269574
H           6.8031200     0.3871217     1.1341261
C           5.7918033     0.4697703    -0.7147947
H           6.7194156     0.4092284    -1.2887986
H           5.5282165     1.5145877    -0.5387655
C           4.6421015    -0.2845500    -1.3743983
H           4.9663599    -1.3182281    -1.6159864
H           4.4259373     0.2104177    -2.3264972
N           3.4629977    -0.2417404    -0.5237079
C           3.7123271    -0.9151447     0.7441699
H           3.9869770    -1.9826389     0.6139216
H           2.8017131    -0.8891783     1.3490767
C           4.8090059    -0.1939800     1.5154581
H           5.0762131    -0.7028072     2.4445352
H           4.5325796     0.8418515     1.7221636
30
017_C11H17N2+_0-10-11-23 (60,) energy =    -538.6732399
C           0.6527751     0.9381130    -0.0551229
H           1.3143827     1.7629512    -0.3081055
C          -0.5162376     1.1773817     0.6647165
H          -0.7661733     2.1895615     0.9699131
C          -1.3724859     0.1190143     0.9832240
H          -2.2865700     0.3076074     1.5386245
C          -1.0530825    -1.1775733     0.5807687
H          -1.7159948    -2.0034768     0.8216721
C           0.1215489    -1.4165421    -0.1368482
H           0.3627855    -2.4284456    -0.4551695
C           0.9825700    -0.3627616    -0.4636905
C           2.2406081    -0.6147055    -1.2660827
H           2.2203759    -0.0294496    -2.1933460
H           2.2934151    -1.6780646    -1.5584150
N           6.0497792    -0.2263415     0.6685835
H           6.3815973    -1.1847779     0.5008673
H           6.7966703     0.2532237     1.1834047
C           5.8145426     0.4524946    -0.6724182
H           6.7481967     0.3926922    -1.2366560
H           5.5778093     1.4948285    -0.4498494
C           4.6530707    -0.2367288    -1.3811619
H           4.9520360    -1.2662460    -1.6691536
H           4.4628148     0.3093714    -2.3106574
N           3.4647276    -0.2020374    -0.5431895
C           3.6781057    -0.9437520     0.6916120
H           3.9284101    -2.0106003     0.5134530
H           2.7603434    -0.9251803     1.2858013
C           4.7818828    -0.2889765     1.5104463
H           5.0225892    -0.8472615     2.4181576
H           4.5291606     0.7431813     1.7610294
30
017_C11H17N2+_0-10-11-23 (75,) energy =    -538.6728020
C           0.5037826     1.0040384    -0.2422898
H           1.0513889     1.8551399    -0.6402916
C          -0.6631889     1.2093006     0.4912406
H          -1.0250515     2.2195525     0.6594749
C          -1.3746681     0.1172405     0.9968945
H          -2.2884154     0.2766298     1.5619465
C          -0.9152001    -1.1788146     0.7633817
H          -1.4703633    -2.0315858     1.1431691
C           0.2549102    -1.3820916     0.0277461
H           0.5969518    -2.3961140    -0.1697031
C           0.9790807    -0.2944508    -0.4760323
C           2.2362604    -0.5085896    -1.2890582
H           2.2291094     0.1413902    -2.1708955
H           2.2753658    -1.5501896    -1.6535624
N           6.0509225    -0.3213787     0.6739170
H           6.3635048    -1.2745603     0.4490460
H           6.8064496     0.1112377     1.2169094
C           5.8313621     0.4410633    -0.6238620
H           6.7643331     0.3959529    -1.1906393
H           5.6154997     1.4728147    -0.3394171
C           4.6568970    -0.1806819    -1.3723618
H           4.9354385    -1.1967541    -1.7226201
H           4.4795950     0.4245659    -2.2671480
N           3.4681770    -0.1723451    -0.5344974
C           3.6646820    -0.9908032     0.6525275
H           3.8937352    -2.0504812     0.4117173
H           2.7477222    -0.9898918     1.2481694
C           4.7804223    -0.4088661     1.5095652
H           5.0084049    -1.0258776     2.3818639
H           4.5481208     0.6111663     1.8218907
30
017_C11H17N2+_0-10-11-23 (90,) energy =    -538.6715135
C           0.3500628     1.0309965    -0.4017559
H           0.7913205     1.8789210    -0.9204484
C          -0.8330157     1.1980766     0.3169529
H          -1.3107210     2.1728854     0.3523846
C          -1.4106274     0.1106883     0.9768040
H          -2.3360956     0.2390905     1.5304827
C          -0.8062272    -1.1451884     0.9063844
H          -1.2624720    -1.9992530     1.3984796
C           0.3762838    -1.3099749     0.1826803
H           0.8201917    -2.3003215     0.0988893
C           0.9783004    -0.2203501    -0.4625167
C           2.2401429    -0.3971281    -1.2776964
H           2.2460297     0.3133705    -2.1102837
H           2.2641716    -1.4112954    -1.7150624
N           6.0736972    -0.4144632     0.6675818
H           6.3636092    -1.3596177     0.3856852
H           6.8427917    -0.0297301     1.2272972
C           5.8592943     0.4254463    -0.5820349
H           6.7856510     0.3926334    -1.1604273
H           5.6688954     1.4437044    -0.2372239
C           4.6646296    -0.1274156    -1.3521102
H           4.9179036    -1.1275262    -1.7626994
H           4.4937319     0.5316473    -2.2092588
N           3.4827629    -0.1423825    -0.5044746
C           3.6720606    -1.0305060     0.6312359
H           3.8753362    -2.0802200     0.3298277
H           2.7634894    -1.0423558     1.2389141
C           4.8084258    -0.5220292     1.5082332
H           5.0295382    -1.1922303     2.3422241
H           4.6009980     0.4834569     1.8796247
30
017_C11H17N2+_0-10-11-23 (105,) energy =    -538.6727973
C           0.4808669     0.3136883    -1.3192675
H           0.9583478     0.4608870    -2.2860418
C          -0.6701750     1.0375158    -0.9987309
H          -1.0758279     1.7506092    -1.7105027
C          -1.3001351     0.8360340     0.2294500
H          -2.1989067     1.3926922     0.4783186
C          -0.7773830    -0.0905445     1.1362880
H          -1.2702896    -0.2558535     2.0900301
C           0.3710180    -0.8114453     0.8142981
H           0.7733507    -1.5339899     1.5204414
C           1.0096277    -0.6201499    -0.4194011
C           2.2656855    -1.3934908    -0.7523343
H           2.4480716    -1.3647480    -1.8410130
H           2.1450707    -2.4462072    -0.4737202
N           6.0554231     0.0838315     0.6262001
H           6.5003668     0.1916713    -0.2942430
H           6.7507321     0.3783591     1.3209113
C           4.8309859     0.9878888     0.6853752
H           5.1671767     2.0034768     0.4636644
H           4.4575857     0.9315255     1.7097570
C           3.7943025     0.4812006    -0.3078777
H           4.1722524     0.6174120    -1.3432007
H           2.9015150     1.1046619    -0.2093381
N           3.4517156    -0.9013629    -0.0098614
C           4.6093836    -1.7673239    -0.1695812
H           5.0264903    -1.7508042    -1.1983177
H           4.3246246    -2.8034473     0.0395537
C           5.6960967    -1.3803496     0.8281749
H           6.6122388    -1.9618494     0.7006547
H           5.3369192    -1.4679681     1.8554678
30
017_C11H17N2+_0-10-11-23 (120,) energy =    -538.6732305
C           0.3452208     0.1957676    -1.4188598
H           0.7260457     0.2445730    -2.4367489
C          -0.8259072     0.8801686    -1.0840778
H          -1.3460502     1.4616697    -1.8396711
C          -1.3250669     0.8130216     0.2164283
H          -2.2369564     1.3418196     0.4780024
C          -0.6522659     0.0578213     1.1817820
H          -1.0426517    -0.0031832     2.1936976
C           0.5133381    -0.6277444     0.8452336
H           1.0316987    -1.2201388     1.5952249
C           1.0230298    -0.5661438    -0.4603425
C           2.2785530    -1.3276790    -0.8255907
H           2.4751188    -1.2326636    -1.9078834
H           2.1448904    -2.3961881    -0.6179767
N           6.0503645     0.0317935     0.7016757
H           6.5112400     0.1895871    -0.2036009
H           6.7359054     0.2808323     1.4233963
C           4.8309301     0.9400191     0.7933593
H           5.1771713     1.9642519     0.6364076
H           4.4402851     0.8273434     1.8066097
C           3.8081670     0.4986273    -0.2442598
H           4.2037970     0.6914322    -1.2635354
H           2.9160347     1.1193828    -0.1245011
N           3.4528276    -0.8975386    -0.0330756
C           4.6075100    -1.7611316    -0.2235870
H           5.0420184    -1.6875588    -1.2424291
H           4.3124724    -2.8055107    -0.0800189
C           5.6794394    -1.4394236     0.8127621
H           6.5944398    -2.0183811     0.6670016
H           5.3027032    -1.5838324     1.8272795
30
017_C11H17N2+_0-10-11-23 (135,) energy =    -538.6729770
C           0.2211856     0.0807236    -1.4797907
H           0.5170516     0.0348378    -2.5255541
C          -0.9778828     0.7033669    -1.1266124
H          -1.6062352     1.1402037    -1.8972841
C          -1.3643697     0.7655866     0.2123123
H          -2.2960604     1.2503967     0.4888025
C          -0.5506151     0.1982659     1.1966753
H          -0.8516798     0.2375418     2.2397886
C           0.6423996    -0.4303267     0.8424535
H           1.2689174    -0.8823785     1.6069858
C           1.0415562    -0.4909469    -0.5006738
C           2.3068796    -1.2223475    -0.8995873
H           2.5206368    -1.0478712    -1.9687064
H           2.1668101    -2.3041249    -0.7786478
N           6.0635251    -0.0121897     0.7740733
H           6.5480651     0.1747063    -0.1131246
H           6.7370014     0.1920111     1.5208309
C           4.8598816     0.9154234     0.8783153
H           5.2283317     1.9383907     0.7720740
H           4.4458514     0.7685271     1.8778497
C           3.8514719     0.5384412    -0.1981147
H           4.2709020     0.7675543    -1.1999175
H           2.9676002     1.1690644    -0.0680956
N           3.4658624    -0.8594950    -0.0576890
C           4.6091285    -1.7357691    -0.2594385
H           5.0683950    -1.6264563    -1.2640098
H           4.2922314    -2.7795350    -0.1678522
C           5.6620084    -1.4790690     0.8136497
H           6.5687753    -2.0698113     0.6639166
H           5.2589752    -1.6588229     1.8123235
30
017_C11H17N2+_0-10-11-23 (150,) energy =    -538.6720294
C           0.1021529    -0.0411834    -1.5061442
H           0.3266819    -0.1874725    -2.5605092
C          -1.1238634     0.5090109    -1.1307234
H          -1.8454599     0.7871042    -1.8933200
C          -1.4188407     0.7053838     0.2194196
H          -2.3713147     1.1370002     0.5125776
C          -0.4855838     0.3402836     1.1915075
H          -0.7129416     0.4815392     2.2444841
C           0.7361014    -0.2198160     0.8157973
H           1.4518691    -0.5250632     1.5741473
C           1.0460181    -0.4050928    -0.5381650
C           2.3289120    -1.0907544    -0.9695485
H           2.5607627    -0.8306351    -2.0174686
H           2.1874972    -2.1791716    -0.9435795
N           6.0721399    -0.0625250     0.8432403
H           6.5835296     0.1426543    -0.0246427
H           6.7328486     0.0931682     1.6127748
C           4.8939352     0.8959931     0.9551362
H           5.2937661     1.9108898     0.8952114
H           4.4534558     0.7254812     1.9395324
C           3.9004795     0.5892191    -0.1570166
H           4.3487899     0.8439051    -1.1397079
H           3.0318466     1.2396860    -0.0216817
N           3.4715163    -0.8019911    -0.0821828
C           4.5949281    -1.7025483    -0.2896925
H           5.0826042    -1.5684070    -1.2776176
H           4.2471885    -2.7394580    -0.2457208
C           5.6267041    -1.5170298     0.8178254
H           6.5191117    -2.1292668     0.6683219
H           5.1929708    -1.7211638     1.7988193
30
017_C11H17N2+_0-10-11-23 (165,) energy =    -538.6703216
C           0.0032273    -0.1735370    -1.5075132
H           0.1659455    -0.4275534    -2.5529749
C          -1.2390342     0.3114658    -1.1020620
H          -2.0356113     0.4288557    -1.8309893
C          -1.4577275     0.6469300     0.2362018
H          -2.4242241     1.0285603     0.5517236
C          -0.4307215     0.4815184     1.1650335
H          -0.5966048     0.7270680     2.2103237
C           0.8106457    -0.0143987     0.7593019
H           1.5949294    -0.1784438     1.4927600
C           1.0453809    -0.3289619    -0.5838596
C           2.3474130    -0.9544114    -1.0563363
H           2.5959880    -0.5912424    -2.0694848
H           2.2061311    -2.0391523    -1.1465568
N           6.0818125    -0.1710208     0.8873318
H           6.6247310     0.0404809     0.0403347
H           6.7285804    -0.0734194     1.6780073
C           4.9466002     0.8368423     1.0050566
H           5.3937012     1.8335123     0.9894869
H           4.4750721     0.6547480     1.9728933
C           3.9688117     0.6146868    -0.1409253
H           4.4530790     0.8834083    -1.1024733
H           3.1275965     1.2997536    -0.0033567
N           3.4757848    -0.7577701    -0.1301481
C           4.5636400    -1.6999209    -0.3427180
H           5.0846100    -1.5520520    -1.3114900
H           4.1699852    -2.7210385    -0.3461547
C           5.5711865    -1.6014226     0.7978127
H           6.4385616    -2.2489529     0.6498767
H           5.1008737    -1.8191990     1.7588215
30
017_C11H17N2+_0-10-11-23 (180,) energy =    -538.6681101
C          -0.0545993    -0.3326869    -1.4725389
H           0.0744633    -0.6985318    -2.4893473
C          -1.3166654     0.0702828    -1.0421987
H          -2.1614569     0.0113351    -1.7222793
C          -1.4958769     0.5437783     0.2604302
H          -2.4789042     0.8596688     0.5967817
C          -0.4070090     0.5961193     1.1283750
H          -0.5397032     0.9458950     2.1484069
C           0.8576138     0.1853673     0.6967825
H           1.6886988     0.1835918     1.3957191
C           1.0509909    -0.2613382    -0.6134272
C           2.3880791    -0.7768906    -1.1262100
H           2.6466387    -0.2826589    -2.0796222
H           2.2797302    -1.8426804    -1.3607364
N           6.0862124    -0.2313480     0.9662196
H           6.6715532    -0.0277451     0.1459381
H           6.7057511    -0.1849544     1.7829428
C           4.9988695     0.8291887     1.0670211
H           5.4946479     1.8024061     1.0913737
H           4.4833364     0.6497325     2.0126866
C           4.0552324     0.6812338    -0.1194921
H           4.5889346     0.9465219    -1.0554711
H           3.2458002     1.4062789     0.0022561
N           3.4952765    -0.6649077    -0.1613457
C           4.5439604    -1.6537751    -0.3588124
H           5.1095201    -1.5084856    -1.3026349
H           4.1030097    -2.6542022    -0.4019809
C           5.5094129    -1.6319297     0.8215650
H           6.3490041    -2.3186357     0.6910240
H           4.9907902    -1.8475851     1.7578753
