20
046_C10H8N2_1-0-16-17 (-165,) energy =    -495.3878320
C           2.5325738    -1.4193583    -0.5801437
C           1.7697336    -1.7700196     0.5447614
H           2.0843447    -1.4179711     1.5210021
C           0.6319970    -2.5612359     0.4035932
H           0.0465746    -2.8246979     1.2805080
C           0.2422952    -3.0124466    -0.8598006
H          -0.6447656    -3.6311920    -0.9679632
C           0.9946805    -2.6632851    -1.9840197
H           0.6952162    -3.0110110    -2.9691652
C           2.1291253    -1.8665437    -1.8480600
H           2.7143572    -1.5798804    -2.7148366
C           5.8777846     1.0511430    -0.1682476
H           6.7433197     1.6960658    -0.0609109
C           5.2719421     0.4379999     0.9267381
H           5.6516853     0.5879882     1.9367703
N           4.2087852    -0.3586935     0.8083743
C           3.7283620    -0.5529802    -0.4350936
N           4.2345320    -0.0003300    -1.5544021
C           5.3012669     0.7871748    -1.4091402
H           5.7043047     1.2257890    -2.3212985
20
046_C10H8N2_1-0-16-17 (-150,) energy =    -495.3861325
C           2.5573533    -1.4427175    -0.5774155
C           1.7286679    -1.6893034     0.5273874
H           2.0039864    -1.2765268     1.4921949
C           0.5775666    -2.4612858     0.3840972
H          -0.0602075    -2.6435009     1.2449685
C           0.2411029    -2.9950178    -0.8621727
H          -0.6554066    -3.5996466    -0.9720238
C           1.0567184    -2.7445671    -1.9684894
H           0.7972342    -3.1552428    -2.9406392
C           2.2014885    -1.9626561    -1.8309960
H           2.8302460    -1.7443272    -2.6877466
C           5.8709655     1.0645852    -0.1644844
H           6.7261659     1.7228726    -0.0548554
C           5.3758931     0.3130611     0.8994353
H           5.8356496     0.3633213     1.8857942
N           4.3263788    -0.5022329     0.7782307
C           3.7505349    -0.5721147    -0.4373877
N           4.1388252     0.1241452    -1.5228230
C           5.1968116     0.9243749    -1.3758668
H           5.5074531     1.4795273    -2.2602291
20
046_C10H8N2_1-0-16-17 (-135,) energy =    -495.3833456
C           2.5752624    -1.4693756    -0.5740913
C           1.6855896    -1.6113721     0.4999366
H           1.9221502    -1.1364459     1.4469367
C           0.5223012    -2.3653206     0.3539181
H          -0.1628617    -2.4678041     1.1912155
C           0.2346847    -2.9814032    -0.8660097
H          -0.6707717    -3.5720905    -0.9779254
C           1.1091281    -2.8296596    -1.9448794
H           0.8860877    -3.3023358    -2.8976907
C           2.2645965    -2.0633172    -1.8055072
H           2.9352618    -1.9170082    -2.6464085
C           5.8597658     1.0728599    -0.1592681
H           6.7049955     1.7434421    -0.0460799
C           5.4772614     0.1911960     0.8495915
H           6.0182683     0.1471543     1.7941056
N           4.4403883    -0.6409151     0.7237251
C           3.7681559    -0.5942646    -0.4419308
N           4.0377569     0.2351055    -1.4672829
C           5.0863510     1.0488086    -1.3178827
H           5.3039251     1.7123513    -2.1539923
20
046_C10H8N2_1-0-16-17 (-120,) energy =    -495.3798632
C           2.5783712    -1.4754862    -0.5720325
C           1.6310166    -1.5190024     0.4588648
H           1.8209645    -0.9729329     1.3782278
C           0.4649834    -2.2693966     0.3109253
H          -0.2646015    -2.2967774     1.1158989
C           0.2326112    -2.9777191    -0.8697395
H          -0.6746551    -3.5652715    -0.9830535
C           1.1647737    -2.9222690    -1.9083108
H           0.9847989    -3.4656961    -2.8320617
C           2.3232361    -2.1595377    -1.7675792
H           3.0376231    -2.0900430    -2.5826343
C           5.8570146     1.0765678    -0.1542931
H           6.6996808     1.7499576    -0.0377537
C           5.5852667     0.0693217     0.7688594
H           6.2138142    -0.0753499     1.6467121
N           4.5511972    -0.7672593     0.6383099
C           3.7738932    -0.5958000    -0.4463470
N           3.9304524     0.3580748    -1.3816249
C           4.9772069     1.1751955    -1.2298627
H           5.1041777     1.9417356    -1.9933476
20
046_C10H8N2_1-0-16-17 (-105,) energy =    -495.3767320
C           2.5550913    -1.4447543    -0.5728687
C           1.5498801    -1.4058905     0.4003614
H           1.6767837    -0.7759969     1.2764234
C           0.3981552    -2.1791638     0.2531994
H          -0.3764017    -2.1427281     1.0146609
C           0.2393982    -2.9934528    -0.8696104
H          -0.6570233    -3.5974280    -0.9824652
C           1.2329272    -3.0248104    -1.8499155
H           1.1122805    -3.6522852    -2.7290128
C           2.3800748    -2.2438244    -1.7086267
H           3.1451507    -2.2527465    -2.4799405
C           5.8694656     1.0687151    -0.1558906
H           6.7241146     1.7273204    -0.0413214
C           5.6987840    -0.0616178     0.6397218
H           6.4222298    -0.3234460     1.4108218
N           4.6503418    -0.8817176     0.5099987
C           3.7570354    -0.5648760    -0.4430737
N           3.8144392     0.5080882    -1.2502753
C           4.8754165     1.3085905    -1.1015873
H           4.9211244     2.1747625    -1.7605115
20
046_C10H8N2_1-0-16-17 (-90,) energy =    -495.3754497
C           2.5159622    -1.3871975    -0.5820918
C           1.4514451    -1.2808951     0.3196776
H           1.5049987    -0.5606382     1.1314924
C           0.3261813    -2.0939034     0.1795371
H          -0.4952371    -2.0034539     0.8853829
C           0.2557487    -3.0196161    -0.8628302
H          -0.6208375    -3.6527009    -0.9716767
C           1.3153359    -3.1291437    -1.7649241
H           1.2669629    -3.8477958    -2.5787619
C           2.4408929    -2.3164835    -1.6254560
H           3.2650401    -2.4025971    -2.3283360
C           5.8900193     1.0494600    -0.1633523
H           6.7654399     1.6812593    -0.0544125
C           5.7993332    -0.1957852     0.4536936
H           6.6102734    -0.5801416     1.0710431
N           4.7266656    -0.9851255     0.3284193
C           3.7242820    -0.5145346    -0.4321676
N           3.7069829     0.6674455    -1.0703887
C           4.7922216     1.4365077    -0.9279567
H           4.7752761     2.3942579    -1.4465193
20
046_C10H8N2_1-0-16-17 (-75,) energy =    -495.3767130
C           2.4879490    -1.3470599    -0.5973871
C           1.3684360    -1.1730015     0.2243737
H           1.3632220    -0.3732432     0.9597937
C           0.2617039    -2.0122784     0.0935707
H          -0.6031968    -1.8686511     0.7357531
C           0.2671460    -3.0354228    -0.8560809
H          -0.5959150    -3.6877238    -0.9596483
C           1.3873281    -3.2221445    -1.6682705
H           1.3997567    -4.0208376    -2.4051823
C           2.4983909    -2.3900871    -1.5307934
H           3.3780219    -2.5465476    -2.1488410
C           5.8975463     1.0338390    -0.1688522
H           6.7856484     1.6484774    -0.0648847
C           5.8704828    -0.2965369     0.2425329
H           6.7472619    -0.7685553     0.6840965
N           4.7837459    -1.0664060     0.1202653
C           3.6982239    -0.4869699    -0.4201995
N           3.6212255     0.7784682    -0.8666572
C           4.7211215     1.5266419    -0.7283906
H           4.6538867     2.5529584    -1.0870984
20
046_C10H8N2_1-0-16-17 (-60,) energy =    -495.3798040
C           2.4903210    -1.3390674    -0.6109860
C           1.3254263    -1.0895444     0.1258614
H           1.2870130    -0.2256204     0.7831421
C           0.2206601    -1.9315869     0.0029303
H          -0.6787938    -1.7298017     0.5784908
C           0.2729872    -3.0342198    -0.8520589
H          -0.5891822    -3.6885045    -0.9508666
C           1.4391324    -3.2994814    -1.5734904
H           1.4872283    -4.1609537    -2.2342451
C           2.5496759    -2.4674521    -1.4389976
H           3.4682419    -2.6851059    -1.9757203
C           5.8995630     1.0320457    -0.1646248
H           6.7874509     1.6465003    -0.0584130
C           5.9250795    -0.3447069     0.0460236
H           6.8466009    -0.8547634     0.3239116
N           4.8390500    -1.1136273    -0.0801926
C           3.6974491    -0.4877721    -0.4179529
N           3.5682272     0.8269724    -0.6723586
C           4.6687683     1.5720173    -0.5309165
H           4.5579877     2.6371473    -0.7304242
20
046_C10H8N2_1-0-16-17 (-45,) energy =    -495.3832990
C           2.5011324    -1.3506339    -0.6133224
C           1.3003281    -1.0271160     0.0339678
H           1.2445609    -0.1132311     0.6174141
C           0.1896690    -1.8605121    -0.0868613
H          -0.7368263    -1.6025399     0.4191547
C           0.2696254    -3.0272358    -0.8504184
H          -0.5976840    -3.6750139    -0.9476119
C           1.4691432    -3.3643128    -1.4821795
H           1.5370558    -4.2744551    -2.0721485
C           2.5854601    -2.5406719    -1.3495278
H           3.5291694    -2.8086345    -1.8138561
C           5.8944203     1.0378555    -0.1609909
H           6.7774662     1.6585972    -0.0520966
C           5.9622681    -0.3535089    -0.1357851
H           6.9137360    -0.8682000    -0.0074045
N           4.8835456    -1.1302695    -0.2660359
C           3.7040381    -0.5008179    -0.4211032
N           3.5315420     0.8328908    -0.4887582
C           4.6260662     1.5845276    -0.3452006
H           4.4794143     2.6629352    -0.3924329
20
046_C10H8N2_1-0-16-17 (-30,) energy =    -495.3861178
C           2.5124607    -1.3665082    -0.6049872
C           1.2817465    -0.9780672    -0.0546170
H           1.2139792    -0.0243369     0.4582993
C           0.1645749    -1.8013358    -0.1789318
H          -0.7839148    -1.4931699     0.2528681
C           0.2640812    -3.0214735    -0.8517811
H          -0.6086335    -3.6616802    -0.9511682
C           1.4896841    -3.4196175    -1.3914161
H           1.5722573    -4.3694887    -1.9129478
C           2.6115297    -2.6043834    -1.2576811
H           3.5727229    -2.9132596    -1.6545850
C           5.8921273     1.0453524    -0.1616557
H           6.7705090     1.6724175    -0.0523582
C           5.9856863    -0.3373130    -0.3068920
H           6.9530346    -0.8382526    -0.3171027
N           4.9139903    -1.1215460    -0.4395652
C           3.7127467    -0.5129908    -0.4265763
N           3.5147016     0.8146387    -0.3138345
C           4.6029246     1.5742163    -0.1728838
H           4.4334386     2.6459714    -0.0757196
20
046_C10H8N2_1-0-16-17 (-15,) energy =    -495.3878306
C           2.5162711    -1.3795886    -0.5926289
C           1.2611908    -0.9377150    -0.1455014
H           1.1810648     0.0493830     0.2963655
C           0.1405781    -1.7547789    -0.2758661
H          -0.8261297    -1.4039879     0.0756018
C           0.2580685    -3.0214473    -0.8532866
H          -0.6175528    -3.6571715    -0.9560687
C           1.5052932    -3.4695822    -1.2953320
H           1.6022533    -4.4545067    -1.7443681
C           2.6295362    -2.6583015    -1.1603838
H           3.6045276    -3.0000002    -1.4898650
C           5.8911853     1.0479876    -0.1665445
H           6.7667227     1.6791963    -0.0586765
C           5.9889102    -0.3070073    -0.4769087
H           6.9587039    -0.7811994    -0.6234603
N           4.9203576    -1.0941757    -0.6102226
C           3.7149622    -0.5202066    -0.4313134
N           3.5130577     0.7796663    -0.1408832
C           4.5984545     1.5432449    -0.0068678
H           4.4235273     2.5917101     0.2318012
20
046_C10H8N2_1-0-16-17 (0,) energy =    -495.3884097
C           2.5202223    -1.3860096    -0.5795004
C           1.2472403    -0.9007790    -0.2401453
H           1.1561021     0.1146373     0.1288696
C           0.1249673    -1.7142404    -0.3772380
H          -0.8557350    -1.3284823    -0.1116117
C           0.2576622    -3.0206641    -0.8540391
H          -0.6192468    -3.6540321    -0.9603934
C           1.5214710    -3.5098290    -1.1935420
H           1.6304971    -4.5253518    -1.5649740
C           2.6464687    -2.6998446    -1.0580279
H           3.6321570    -3.0688664    -1.3183983
C           5.8922988     1.0509217    -0.1704752
H           6.7671222     1.6833666    -0.0644277
C           5.9777411    -0.2578097    -0.6414854
H           6.9363926    -0.6931015    -0.9214530
N           4.9100962    -1.0453235    -0.7765694
C           3.7173157    -0.5209598    -0.4343112
N           3.5294878     0.7296059     0.0300417
C           4.6129754     1.4967385     0.1558709
H           4.4480766     2.5057045     0.5322616
20
046_C10H8N2_1-0-16-17 (15,) energy =    -495.3878306
C           2.5199604    -1.3893587    -0.5648272
C           1.2357374    -0.8702847    -0.3373724
H           1.1360018     0.1687610    -0.0433215
C           0.1132375    -1.6823496    -0.4819616
H          -0.8767086    -1.2699997    -0.3056596
C           0.2578589    -3.0208893    -0.8548737
H          -0.6188021    -3.6538596    -0.9654914
C           1.5327751    -3.5423809    -1.0881837
H           1.6506697    -4.5827640    -1.3794139
C           2.6572549    -2.7317275    -0.9514507
H           3.6508595    -3.1227341    -1.1406274
C           5.8900666     1.0509548    -0.1749806
H           6.7650939     1.6835138    -0.0709519
C           5.9462201    -0.1939126    -0.7987108
H           6.8814272    -0.5764799    -1.2059763
N           4.8773035    -0.9801162    -0.9347719
C           3.7143913    -0.5186913    -0.4356231
N           3.5574026     0.6621945     0.1933827
C           4.6405533     1.4317230     0.3104689
H           4.5012011     2.3859449     0.8173056
20
046_C10H8N2_1-0-16-17 (30,) energy =    -495.3861178
C           2.5202097    -1.3870333    -0.5465816
C           1.2312295    -0.8442411    -0.4354142
H           1.1242241     0.2134329    -0.2182679
C           0.1101510    -1.6571602    -0.5891791
H          -0.8843004    -1.2272387    -0.5038332
C           0.2633342    -3.0194908    -0.8574208
H          -0.6116654    -3.6536447    -0.9740309
C           1.5440718    -3.5636906    -0.9814565
H           1.6677444    -4.6224379    -1.1931837
C           2.6668333    -2.7508828    -0.8408176
H           3.6654244    -3.1588286    -0.9558205
C           5.8896264     1.0519775    -0.1805033
H           6.7667404     1.6824016    -0.0807655
C           5.9010868    -0.1131995    -0.9445986
H           6.8000357    -0.4329458    -1.4703938
N           4.8292144    -0.8969652    -1.0786021
C           3.7117320    -0.5103008    -0.4342279
N           3.6020675     0.5832006     0.3447208
C           4.6860173     1.3540973     0.4534648
H           4.5867444     2.2398517     1.0798909
20
046_C10H8N2_1-0-16-17 (45,) energy =    -495.3832990
C           2.5124658    -1.3806542    -0.5278956
C           1.2246317    -0.8265903    -0.5366232
H           1.1096011     0.2442874    -0.3998970
C           0.1082271    -1.6447657    -0.7007642
H          -0.8862664    -1.2066614    -0.7073108
C           0.2679190    -3.0227144    -0.8632851
H          -0.6029702    -3.6610086    -0.9874670
C           1.5497873    -3.5779426    -0.8742992
H           1.6784120    -4.6489130    -1.0066348
C           2.6681287    -2.7596658    -0.7263812
H           3.6687959    -3.1785132    -0.7613685
C           5.8910833     1.0467002    -0.1861553
H           6.7722937     1.6723035    -0.0910919
C           5.8372813    -0.0224097    -1.0779193
H           6.6874926    -0.2688608    -1.7128070
N           4.7586462    -0.7994023    -1.2075092
C           3.7030138    -0.4981025    -0.4288234
N           3.6605531     0.4911341     0.4837110
C           4.7493560     1.2579283     0.5841349
H           4.7063320     2.0618192     1.3180346
20
046_C10H8N2_1-0-16-17 (60,) energy =    -495.3798040
C           2.5023902    -1.3710366    -0.5200158
C           1.2224884    -0.8168519    -0.6500786
H           1.1030258     0.2617765    -0.6037350
C           0.1115773    -1.6426150    -0.8193340
H          -0.8774706    -1.2034895    -0.9191222
C           0.2709891    -3.0289219    -0.8671343
H          -0.5950753    -3.6728881    -0.9953044
C           1.5472323    -3.5858405    -0.7586596
H           1.6770867    -4.6638965    -0.8031296
C           2.6602362    -2.7603296    -0.6056177
H           3.6574795    -3.1864047    -0.5492802
C           5.8964353     1.0403303    -0.1881940
H           6.7824491     1.6597501    -0.0961119
C           5.7596857     0.0934346    -1.2006955
H           6.5464884    -0.0597441    -1.9382990
N           4.6736720    -0.6755273    -1.3267939
C           3.6969617    -0.4864793    -0.4216271
N           3.7383125     0.3764043     0.6097292
C           4.8328988     1.1372234     0.7062871
H           4.8589606     1.8398476     1.5382831
20
046_C10H8N2_1-0-16-17 (75,) energy =    -495.3767130
C           2.4962763    -1.3691166    -0.5346237
C           1.2344463    -0.8180490    -0.7856339
H           1.1237473     0.2611465    -0.8453476
C           0.1236855    -1.6466541    -0.9468025
H          -0.8521178    -1.2092372    -1.1405924
C           0.2661638    -3.0328183    -0.8634882
H          -0.5994964    -3.6782343    -0.9866457
C           1.5253821    -3.5878579    -0.6276376
H           1.6435068    -4.6665483    -0.5678223
C           2.6381983    -2.7604447    -0.4769463
H           3.6216172    -3.1918474    -0.3126519
C           5.8956114     1.0389664    -0.1834389
H           6.7823691     1.6571658    -0.0896035
C           5.6650187     0.2477571    -1.3062411
H           6.3735103     0.2215440    -2.1332078
N           4.5773239    -0.5195741    -1.4357319
C           3.6983013    -0.4871722    -0.4196237
N           3.8308912     0.2230498     0.7137745
C           4.9258462     0.9843119     0.8148004
H           5.0279553     1.5620223     1.7325922
20
046_C10H8N2_1-0-16-17 (90,) energy =    -495.3754497
C           2.5165889    -1.3888556    -0.5773734
C           1.2839186    -0.8371019    -0.9431273
H           1.2059152     0.2316593    -1.1229758
C           0.1595158    -1.6523906    -1.0767787
H          -0.7932946    -1.2138736    -1.3613527
C           0.2579795    -3.0255222    -0.8460227
H          -0.6179906    -3.6602388    -0.9502255
C           1.4856840    -3.5804055    -0.4808648
H           1.5693099    -4.6487321    -0.2997094
C           2.6104987    -2.7657797    -0.3469901
H           3.5656185    -3.1988495    -0.0626120
C           5.8883138     1.0539786    -0.1762054
H           6.7630274     1.6876505    -0.0725930
C           5.5551978     0.4509512    -1.3865758
H           6.1661719     0.5963205    -2.2765492
N           4.4802464    -0.3323383    -1.5290687
C           3.7240858    -0.5140120    -0.4336524
N           3.9523016     0.0175783     0.7787960
C           5.0337899     0.7965750     0.8929615
H           5.2162031     1.2262073     1.8771470
20
046_C10H8N2_1-0-16-17 (105,) energy =    -495.3767320
C           2.5476629    -1.4250742    -0.6288653
C           1.3503424    -0.8772983    -1.1037352
H           1.3211036     0.1662277    -1.4046565
C           0.2051743    -1.6679407    -1.2014741
H          -0.7195654    -1.2336591    -1.5720754
C           0.2458476    -3.0105347    -0.8210019
H          -0.6460354    -3.6265327    -0.8996458
C           1.4341047    -3.5577417    -0.3334669
H           1.4703110    -4.6007308    -0.0302259
C           2.5768323    -2.7650477    -0.2254925
H           3.4969227    -3.1846144     0.1716761
C           5.8682334     1.0719815    -0.1651829
H           6.7236980     1.7284262    -0.0444669
C           5.4254596     0.6624434    -1.4205768
H           5.9259010     0.9913704    -2.3304605
N           4.3725067    -0.1457074    -1.5843000
C           3.7542508    -0.5574969    -0.4640676
N           4.0852480    -0.2093035     0.7910515
C           5.1443381     0.5961977     0.9255148
H           5.4126255     0.8727389     1.9443724
20
046_C10H8N2_1-0-16-17 (120,) energy =    -495.3798632
C           2.5675198    -1.4467368    -0.6538365
C           1.4061306    -0.9232604    -1.2363069
H           1.4210735     0.0864099    -1.6361108
C           0.2491459    -1.6976246    -1.3160411
H          -0.6473412    -1.2828693    -1.7691583
C           0.2405861    -2.9988420    -0.8096351
H          -0.6603582    -3.6031416    -0.8752960
C           1.3900112    -3.5189360    -0.2105056
H           1.3859701    -4.5284236     0.1919098
C           2.5423427    -2.7399637    -0.1159865
H           3.4298862    -3.1291731     0.3741929
C           5.8564356     1.0781026    -0.1586545
H           6.7010366     1.7463668    -0.0275291
C           5.2961153     0.8353061    -1.4107301
H           5.6893368     1.3140298    -2.3067367
N           4.2559377     0.0149064    -1.5873242
C           3.7688228    -0.5823658    -0.4845707
N           4.2159658    -0.3982688     0.7705406
C           5.2619145     0.4209859     0.9162321
H           5.6251292     0.5616988     1.9335272
20
046_C10H8N2_1-0-16-17 (135,) energy =    -495.3833456
C           2.5654847    -1.4434710    -0.6478004
C           1.4419221    -0.9658773    -1.3368057
H           1.4898002     0.0088820    -1.8120710
C           0.2868604    -1.7416189    -1.4208132
H          -0.5802280    -1.3621692    -1.9548486
C           0.2414271    -2.9992619    -0.8151935
H          -0.6583444    -3.6050087    -0.8842586
C           1.3521524    -3.4734451    -0.1129990
H           1.3189125    -4.4489162     0.3648827
C           2.5021934    -2.6927253    -0.0145365
H           3.3596505    -3.0412409     0.5525768
C           5.8599561     1.0723578    -0.1578336
H           6.7075914     1.7365672    -0.0265109
C           5.1826292     0.9717004    -1.3713141
H           5.4837336     1.5631779    -2.2351577
N           4.1390108     0.1574585    -1.5480282
C           3.7623611    -0.5789112    -0.4856153
N           4.3298290    -0.5386123     0.7343202
C           5.3778306     0.2766599     0.8792570
H           5.8373239     0.2993410     1.8667073
20
046_C10H8N2_1-0-16-17 (150,) energy =    -495.3861325
C           2.5510792    -1.4260946    -0.6247139
C           1.4709207    -1.0065110    -1.4154858
H           1.5471420    -0.0663127    -1.9514480
C           0.3255625    -1.7937065    -1.5154882
H          -0.5075955    -1.4583366    -2.1273969
C           0.2456432    -3.0070418    -0.8279588
H          -0.6470765    -3.6217096    -0.9092451
C           1.3138028    -3.4255977    -0.0306279
H           1.2548065    -4.3673786     0.5084731
C           2.4551844    -2.6347105     0.0813254
H           3.2815968    -2.9399827     0.7144734
C           5.8713465     1.0635768    -0.1616094
H           6.7284676     1.7167757    -0.0374994
C           5.0827557     1.0896039    -1.3101986
H           5.3030917     1.7741050    -2.1285605
N           4.0271763     0.2903769    -1.4771234
C           3.7460372    -0.5601976    -0.4712946
N           4.4316268    -0.6515043     0.6842775
C           5.4881982     0.1524733     0.8205706
H           6.0402507     0.0681110     1.7559367
20
046_C10H8N2_1-0-16-17 (165,) energy =    -495.3878320
C           2.4933397    -1.3646078    -0.5822537
C           1.8748028    -1.9166437     0.5504288
H           2.2735158    -1.6819847     1.5312079
C           0.7649803    -2.7468122     0.4107577
H           0.2951320    -3.1715758     1.2938940
C           0.2587584    -3.0353974    -0.8589191
H          -0.6083641    -3.6819676    -0.9660053
C           0.8724896    -2.4927330    -1.9906068
H           0.4830580    -2.7149131    -2.9805979
C           1.9866693    -1.6677109    -1.8557416
H           2.4780310    -1.2500392    -2.7275728
C           5.8929640     1.0299502    -0.1674388
H           6.7779447     1.6477347    -0.0590491
C           5.0777954     0.7089482     0.9162779
H           5.3051173     1.0716393     1.9180997
N           3.9859750    -0.0477433     0.7963758
C           3.6928286    -0.5033970    -0.4369986
N           4.4195579    -0.2585555    -1.5444276
C           5.5028601     0.5058313    -1.3982866
H           6.0809235     0.7001816    -2.3010192
20
046_C10H8N2_1-0-16-17 (180,) energy =    -495.3884098
C           2.5148418    -1.3903879    -0.5816248
C           1.8216168    -1.8434022     0.5520901
H           2.1771989    -1.5505537     1.5335849
C           0.6978116    -2.6542727     0.4120578
H           0.1688757    -2.9991473     1.2966087
C           0.2512071    -3.0235774    -0.8591153
H          -0.6259278    -3.6564336    -0.9666629
C           0.9362657    -2.5763884    -1.9915641
H           0.5934965    -2.8604760    -2.9829999
C           2.0605084    -1.7653695    -1.8560052
H           2.5999201    -1.4124522    -2.7277960
C           5.8889574     1.0429200    -0.1680627
H           6.7644030     1.6742870    -0.0607576
C           5.1752790     0.5739581     0.9331489
H           5.4764911     0.8289331     1.9485981
N           4.0976170    -0.2025269     0.8148320
C           3.7125566    -0.5264236    -0.4348261
N           4.3330983    -0.1252133    -1.5612360
C           5.4080711     0.6503631    -1.4156949
H           5.9009246     0.9682726    -2.3337945
