24
201_C8H11NO3S_6-12-13-19 (-165,) energy =    -990.0120854
C           1.1426357    -0.1539921    -1.0469316
H           1.7905271    -0.2303157    -1.9141301
C           0.1140089     0.7745332    -1.0077421
H          -0.0533453     1.4414472    -1.8473126
C          -0.7081447     0.8343610     0.1272814
H          -1.5186824     1.5569803     0.1689301
C           1.3610130    -1.0173224     0.0386395
C          -0.5096632    -0.0226484     1.1989845
H          -1.1465216     0.0073638     2.0771892
C           0.5258156    -0.9750414     1.1790283
O           0.6486266    -1.7690541     2.2577309
H           1.3439114    -2.4446207     2.0752810
S           2.6955078    -2.1867595    -0.1112778
N           4.0738506    -1.1949366     0.0227062
C           4.2177326    -0.5587406     1.3400045
H           4.4818037    -1.2764018     2.1293221
H           3.2913603    -0.0480710     1.6127420
H           5.0077483     0.1935734     1.2593747
O           2.5959791    -3.1042442     1.0570287
C           5.3065505    -1.8724472    -0.4179255
O           2.7352780    -2.7625123    -1.4556443
H           5.1394844    -2.3296648    -1.3933462
H           5.6433323    -2.6387468     0.2950359
H           6.0839804    -1.1085888    -0.5126001
24
201_C8H11NO3S_6-12-13-19 (-150,) energy =    -990.0122741
C           1.1488605    -0.1888911    -1.0347593
H           1.8144543    -0.3015552    -1.8844454
C           0.1284007     0.7490557    -1.0524258
H          -0.0134105     1.3860041    -1.9195573
C          -0.7177944     0.8588381     0.0611464
H          -1.5216091     1.5901118     0.0589756
C           1.3344177    -1.0156438     0.0844544
C          -0.5500776     0.0403635     1.1673543
H          -1.2042410     0.1087693     2.0305872
C           0.4761036    -0.9216817     1.2036270
O           0.5680283    -1.6758470     2.3148231
H           1.2574688    -2.3660981     2.1716637
S           2.6650841    -2.1996413     0.0091506
N           4.0417132    -1.2207739     0.1350547
C           4.2847872    -0.6902324     1.4804399
H           4.6636155    -1.4538082     2.1734058
H           3.3630393    -0.2666666     1.8876298
H           5.0184616     0.1168544     1.3954360
O           2.5338662    -3.0682376     1.2091024
C           5.2398997    -1.7280818    -0.5479832
O           2.7186499    -2.8193468    -1.3155796
H           4.9670082    -2.0892557    -1.5389488
H           5.7352312    -2.5362551     0.0097085
H           5.9375669    -0.8912106    -0.6513060
24
201_C8H11NO3S_6-12-13-19 (-135,) energy =    -990.0114043
C           1.0944113    -0.2937597    -1.1214164
H           1.7014729    -0.4969540    -1.9976402
C           0.0883422     0.6606590    -1.1596832
H          -0.0974764     1.2217702    -2.0699076
C          -0.6852505     0.8853707    -0.0122749
H          -1.4754948     1.6310277    -0.0301776
C           1.3330442    -1.0249465     0.0511976
C          -0.4652169     0.1583658     1.1486486
H          -1.0674467     0.3115946     2.0384195
C           0.5434991    -0.8186685     1.2040473
O           0.6933288    -1.4843667     2.3687564
H           1.3044027    -2.2429194     2.2193686
S           2.6692988    -2.2086809     0.0267762
N           4.0468500    -1.2666134     0.2641884
C           4.3434452    -0.9121626     1.6540015
H           4.8234633    -1.7335335     2.2030744
H           3.4265686    -0.6295554     2.1766104
H           5.0102556    -0.0445070     1.6468088
O           2.4664977    -3.0951823     1.2007441
C           5.2067827    -1.5293148    -0.5924649
O           2.7792225    -2.7873502    -1.3129674
H           4.8703647    -1.7693449    -1.6001405
H           5.8280442    -2.3554546    -0.2169094
H           5.8124376    -0.6176886    -0.6233340
24
201_C8H11NO3S_6-12-13-19 (-120,) energy =    -990.0102995
C           1.0099911    -0.3223112    -1.1098365
H           1.5780823    -0.5900126    -1.9948051
C           0.0406465     0.6702087    -1.1600096
H          -0.1528075     1.1970394    -2.0890100
C          -0.6857393     0.9764287    -0.0016137
H          -1.4461923     1.7521474    -0.0289216
C           1.2578828    -1.0098081     0.0861231
C          -0.4585683     0.2898545     1.1832800
H          -1.0279484     0.5033916     2.0822381
C           0.5116458    -0.7232167     1.2504351
O           0.6710293    -1.3500886     2.4373634
H           1.2196472    -2.1554308     2.2921168
S           2.5665367    -2.2280691     0.0915805
N           3.9727737    -1.3657632     0.3730077
C           4.3413243    -1.0892196     1.7609543
H           4.9199952    -1.9094580     2.2067024
H           3.4491849    -0.9208093     2.3669305
H           4.9425562    -0.1743616     1.7802265
O           2.3136669    -3.0967355     1.2665442
C           5.0528812    -1.3894448    -0.6115370
O           2.6759956    -2.8044998    -1.2490077
H           4.6483190    -1.6199877    -1.5960939
H           5.8147086    -2.1414237    -0.3609645
H           5.5260451    -0.4013535    -0.6375762
24
201_C8H11NO3S_6-12-13-19 (-105,) energy =    -990.0109460
C           1.1329252    -0.2606882    -0.9548587
H           1.6979547    -0.5487041    -1.8359416
C           0.2783913     0.8327893    -0.9850082
H           0.1748386     1.4202106    -1.8917579
C          -0.4523392     1.1602797     0.1651993
H          -1.1239257     2.0144878     0.1544290
C           1.2626918    -1.0295937     0.2116150
C          -0.3425247     0.3984137     1.3200681
H          -0.9177698     0.6300055     2.2107964
C           0.5096951    -0.7178006     1.3666616
O           0.5547481    -1.4135900     2.5212743
H           1.0394475    -2.2567141     2.3548788
S           2.4520851    -2.3660808     0.1942400
N           3.9464130    -1.7077850     0.5491301
C           4.0761918    -0.8969737     1.7551267
H           5.0790953    -1.0433615     2.1702689
H           3.3513646    -1.2199479     2.5046457
H           3.9286868     0.1736053     1.5510400
O           2.0850545    -3.2268783     1.3427857
C           4.9409697    -1.5203972    -0.5024709
O           2.5474438    -2.9311652    -1.1509751
H           4.7429368    -2.2154555    -1.3170332
H           5.9298708    -1.7380173    -0.0835352
H           4.9435588    -0.4913958    -0.8932806
24
201_C8H11NO3S_6-12-13-19 (-90,) energy =    -990.0126851
C           1.1668130    -0.3055565    -0.9690212
H           1.7136372    -0.6278422    -1.8495067
C           0.3416754     0.8101476    -1.0144151
H           0.2463322     1.3820785    -1.9318871
C          -0.3712923     1.1793316     0.1340937
H          -1.0204473     2.0504813     0.1115988
C           1.2858367    -1.0541471     0.2120844
C          -0.2742474     0.4365713     1.3026760
H          -0.8387457     0.6999987     2.1914350
C           0.5486161    -0.7004509     1.3657660
O           0.5789733    -1.3781595     2.5312422
H           1.0439440    -2.2344246     2.3795648
S           2.4454236    -2.4164148     0.2208100
N           3.9679650    -1.7992647     0.5746635
C           4.1002782    -1.0303340     1.8119695
H           5.1440543    -1.0826757     2.1371926
H           3.4781581    -1.4716817     2.5917706
H           3.8223042     0.0261220     1.6797613
O           2.0708188    -3.2525520     1.3834382
C           4.8132529    -1.3666479    -0.5385561
O           2.5291508    -2.9946827    -1.1188280
H           4.6763550    -2.0418845    -1.3819775
H           5.8552709    -1.4220821    -0.2071297
H           4.6006283    -0.3328979    -0.8535541
24
201_C8H11NO3S_6-12-13-19 (-75,) energy =    -990.0134199
C           1.1747098    -0.3850991    -1.0211544
H           1.6944090    -0.7620780    -1.8959495
C           0.3664459     0.7412044    -1.1036150
H           0.2591375     1.2679258    -2.0464798
C          -0.3136643     1.1794582     0.0401820
H          -0.9487730     2.0596067    -0.0124150
C           1.3092141    -1.0746758     0.1936625
C          -0.2036205     0.4935259     1.2422438
H          -0.7453744     0.8089812     2.1281951
C           0.6020294    -0.6525819     1.3435278
O           0.6434090    -1.2768413     2.5384594
H           1.0867209    -2.1487046     2.4194936
S           2.4493882    -2.4515082     0.2558631
N           3.9884274    -1.8468859     0.5908018
C           4.1639113    -1.2044121     1.8969224
H           5.2363607    -1.1711842     2.1114003
H           3.6775420    -1.8011780     2.6683782
H           3.7679834    -0.1775501     1.9198746
O           2.0724516    -3.2504831     1.4429461
C           4.6719320    -1.1724700    -0.5169434
O           2.5249032    -3.0623444    -1.0692684
H           4.5441235    -1.7539947    -1.4296906
H           5.7383048    -1.1321055    -0.2745304
H           4.3088347    -0.1448947    -0.6753123
24
201_C8H11NO3S_6-12-13-19 (-60,) energy =    -990.0126170
C           1.1681315    -0.4662330    -1.0741617
H           1.6502239    -0.9025651    -1.9426263
C           0.3575333     0.6555974    -1.1946989
H           0.2101171     1.1190825    -2.1649808
C          -0.2711837     1.1719017    -0.0544958
H          -0.9068423     2.0492549    -0.1380503
C           1.3551758    -1.0723144     0.1766130
C          -0.1103700     0.5663419     1.1851112
H          -0.6134152     0.9407522     2.0708969
C           0.6978797    -0.5727813     1.3246446
O           0.7939516    -1.1197048     2.5554826
H           1.2082619    -2.0087839     2.4713260
S           2.4838865    -2.4564747     0.2934418
N           4.0353230    -1.8583631     0.6064464
C           4.2911228    -1.4099503     1.9819309
H           5.3745465    -1.3093432     2.0966022
H           3.9366007    -2.1640072     2.6833985
H           3.8227997    -0.4403563     2.2103134
O           2.1024281    -3.2215829     1.5008707
C           4.5651884    -0.9494792    -0.4169673
O           2.5486337    -3.0989084    -1.0171528
H           4.3956217    -1.3772368    -1.4060991
H           5.6445601    -0.8633770    -0.2608468
H           4.1186923     0.0549809    -0.3643199
24
201_C8H11NO3S_6-12-13-19 (-45,) energy =    -990.0101769
C           1.1226303    -0.5548912    -1.1355796
H           1.5608269    -1.0543403    -1.9932312
C           0.3045929     0.5568616    -1.2951447
H           0.1042263     0.9483483    -2.2873785
C          -0.2614812     1.1592827    -0.1642986
H          -0.9014556     2.0300893    -0.2779304
C           1.3777882    -1.0646927     0.1445985
C          -0.0331046     0.6476180     1.1069069
H          -0.4884357     1.0895769     1.9873739
C           0.7817838    -0.4806236     1.2850541
O           0.9487476    -0.9381847     2.5458636
H           1.3248829    -1.8468644     2.5034480
S           2.4964329    -2.4518773     0.3161008
N           4.0633208    -1.8531233     0.6043817
C           4.4212616    -1.6383768     2.0152449
H           5.5064624    -1.5034185     2.0550908
H           4.1572474    -2.5195356     2.5976407
H           3.9403161    -0.7498518     2.4515820
O           2.1102153    -3.1792070     1.5465100
C           4.4589182    -0.7377677    -0.2632335
O           2.5447068    -3.1344669    -0.9747508
H           4.2110073    -0.9719943    -1.3005345
H           5.5453671    -0.6292365    -0.1936311
H           3.9866386     0.2135646     0.0221928
24
201_C8H11NO3S_6-12-13-19 (-30,) energy =    -990.0066770
C           1.0519182    -0.6338467    -1.1861287
H           1.4533160    -1.1971471    -2.0221892
C           0.2325625     0.4703523    -1.3871019
H          -0.0112881     0.7913499    -2.3947910
C          -0.2764116     1.1579007    -0.2777767
H          -0.9157653     2.0239284    -0.4259681
C           1.3617646    -1.0489489     0.1149813
C           0.0073836     0.7382586     1.0163304
H          -0.4037795     1.2468007     1.8824469
C           0.8228504    -0.3815727     1.2370102
O           1.0505120    -0.7523678     2.5176354
H           1.3951773    -1.6744362     2.5218816
S           2.4685880    -2.4355069     0.3459269
N           4.0474616    -1.8256454     0.5926343
C           4.5294468    -1.8614375     1.9832293
H           5.6124542    -1.7074774     1.9499116
H           4.3276510    -2.8373967     2.4209807
H           4.0803076    -1.0792754     2.6136300
O           2.0818341    -3.1053952     1.6098261
C           4.3394308    -0.5499617    -0.0717485
O           2.4900109    -3.1844994    -0.9086717
H           4.0134119    -0.5848322    -1.1134034
H           5.4252054    -0.4150055    -0.0668505
H           3.8708052     0.3111854     0.4263764
24
201_C8H11NO3S_6-12-13-19 (-15,) energy =    -990.0036605
C           0.8342263     0.7093674    -0.1267312
H           1.2765278     1.4582611    -0.7757710
C          -0.2355823     1.0153084     0.7055284
H          -0.6437661     2.0207786     0.7219250
C          -0.7817202     0.0118763     1.5167679
H          -1.6171091     0.2429037     2.1721364
C           1.3556971    -0.5902789    -0.1457337
C          -0.2851654    -1.2856141     1.4841303
H          -0.7190507    -2.0755308     2.0887778
C           0.7874678    -1.6152512     0.6420685
O           1.2210670    -2.8952633     0.6420592
H           1.7673356    -3.0419202    -0.1645421
S           2.7602416    -0.9449789    -1.1896478
N           4.1649496    -0.8368911    -0.2111763
C           4.9725558    -2.0645301    -0.1604132
H           5.9623914    -1.7816518     0.2112357
H           5.0832026    -2.4853285    -1.1588337
H           4.5471698    -2.8304385     0.5048247
O           2.6461188    -2.3638757    -1.6120132
C           4.0273240    -0.1800746     1.0926324
O           2.8388597     0.1015265    -2.2070688
H           3.5011155     0.7702373     0.9892310
H           5.0363273     0.0353799     1.4575201
H           3.5073850    -0.8007391     1.8375399
24
201_C8H11NO3S_6-12-13-19 (0,) energy =    -990.0027983
C           0.8554192     0.6958212    -0.1815291
H           1.3206839     1.3998555    -0.8640379
C          -0.2201581     1.0659747     0.6160645
H          -0.6105941     2.0775250     0.5704128
C          -0.7957364     0.1175196     1.4722259
H          -1.6368101     0.3978576     2.1005591
C           1.3549637    -0.6116871    -0.1196373
C          -0.3211428    -1.1874268     1.5195943
H          -0.7767027    -1.9350809     2.1608921
C           0.7586609    -1.5826487     0.7151094
O           1.1713959    -2.8648407     0.7981386
H           1.7427579    -3.0607230     0.0184426
S           2.7552271    -1.0398596    -1.1345848
N           4.1373907    -0.8488142    -0.1447624
C           5.1386266    -1.9056236    -0.3348442
H           6.0854027    -1.5334816     0.0684414
H           5.2759344    -2.1078057    -1.3980521
H           4.8730550    -2.8444916     0.1713444
O           2.6324286    -2.4895028    -1.4466969
C           3.9697493    -0.4075886     1.2423400
O           2.8512379    -0.0953848    -2.2465342
H           3.3265740     0.4713724     1.2904879
H           4.9597787    -0.1198751     1.6097113
H           3.5644099    -1.1888677     1.9034058
24
201_C8H11NO3S_6-12-13-19 (15,) energy =    -990.0040722
C           0.8448837     0.6661375    -0.2356613
H           1.3355487     1.3299950    -0.9403651
C          -0.2200160     1.1013596     0.5425091
H          -0.5758479     2.1231252     0.4587183
C          -0.8309885     0.2031082     1.4280079
H          -1.6651833     0.5327786     2.0414273
C           1.3008885    -0.6546374    -0.1248949
C          -0.3998334    -1.1137796     1.5247825
H          -0.8820448    -1.8217735     2.1911163
C           0.6698302    -1.5756429     0.7416830
O           1.0386624    -2.8647465     0.8793304
H           1.6273182    -3.1029167     0.1233410
S           2.6810358    -1.1539105    -1.1314284
N           4.0666620    -0.8681646    -0.1744451
C           5.1831641    -1.7436287    -0.5519461
H           6.0992689    -1.3061150    -0.1439498
H           5.2768922    -1.7736104    -1.6396944
H           5.0683158    -2.7695406    -0.1756620
O           2.5464674    -2.6244739    -1.3308776
C           3.9129840    -0.6382653     1.2648187
O           2.7761830    -0.3081870    -2.3203994
H           3.1966597     0.1622682     1.4486812
H           4.8882081    -0.3120481     1.6392317
H           3.6074766    -1.5353474     1.8253044
24
201_C8H11NO3S_6-12-13-19 (30,) energy =    -990.0065265
C           0.8937245     0.6426014    -0.2558431
H           1.4249925     1.2716791    -0.9629654
C          -0.1713302     1.1362888     0.4849154
H          -0.4860229     2.1683908     0.3693766
C          -0.8374203     0.2822648     1.3750258
H          -1.6730689     0.6573838     1.9597094
C           1.2974863    -0.6922479    -0.1053381
C          -0.4576330    -1.0458701     1.5137837
H          -0.9802070    -1.7187541     2.1860026
C           0.6131782    -1.5677688     0.7690415
O           0.9264982    -2.8640462     0.9519127
H           1.5551468    -3.1364922     0.2406693
S           2.6811487    -1.2521339    -1.0722893
N           4.0497978    -0.8406698    -0.1428728
C           5.2595158    -1.5090563    -0.6419305
H           6.1255512    -0.9870109    -0.2244732
H           5.2994963    -1.4208447    -1.7298423
H           5.3032461    -2.5710068    -0.3628328
O           2.5663042    -2.7365438    -1.1466359
C           3.9182367    -0.8123144     1.3171414
O           2.7770203    -0.5104070    -2.3289610
H           3.1118047    -0.1411994     1.6122761
H           4.8562894    -0.4111229     1.7124930
H           3.7489629    -1.8044883     1.7638144
24
201_C8H11NO3S_6-12-13-19 (45,) energy =    -990.0094154
C           0.9435361     0.5964762    -0.2330520
H           1.5345127     1.1827126    -0.9294778
C          -0.1121608     1.1666590     0.4630218
H          -0.3579445     2.2142478     0.3224427
C          -0.8596405     0.3690063     1.3414633
H          -1.6900875     0.8035432     1.8914024
C           1.2612082    -0.7587048    -0.0517681
C          -0.5653890    -0.9758979     1.5129077
H          -1.1480784    -1.6050135     2.1780588
C           0.4969793    -1.5758699     0.8137737
O           0.7182316    -2.8841774     1.0309490
H           1.3897754    -3.2008014     0.3799130
S           2.6325112    -1.4065848    -0.9815672
N           3.9950411    -0.8734574    -0.1148246
C           5.2535892    -1.3120817    -0.7355593
H           6.0620750    -0.7072017    -0.3143651
H           5.2075485    -1.1289338    -1.8104489
H           5.4650147    -2.3754412    -0.5536538
O           2.5267294    -2.8913746    -0.9065430
C           3.9520920    -1.0209930     1.3432115
O           2.7150796    -0.7871958    -2.3039654
H           3.0559318    -0.5463048     1.7441943
H           4.8240087    -0.4975599     1.7467125
H           3.9888559    -2.0703140     1.6739090
24
201_C8H11NO3S_6-12-13-19 (60,) energy =    -990.0117613
C           1.0252647     0.5566116    -0.2193716
H           1.6869699     1.1047111    -0.8823831
C          -0.0313061     1.1922417     0.4142166
H          -0.2071872     2.2512679     0.2556282
C          -0.8705399     0.4462302     1.2552048
H          -1.7034363     0.9317433     1.7566662
C           1.2558450    -0.8134868    -0.0150138
C          -0.6606225    -0.9099177     1.4522489
H          -1.3105198    -1.4986067     2.0916608
C           0.4033240    -1.5763573     0.8165453
O           0.5338493    -2.8921714     1.0588681
H           1.2551982    -3.2477084     0.4867015
S           2.6250315    -1.5438182    -0.8888578
N           3.9714414    -0.8909045    -0.0876496
C           5.2356672    -1.0705483    -0.8172235
H           5.9705413    -0.3891333    -0.3780265
H           5.0885902    -0.8036108    -1.8640342
H           5.6177902    -2.0994924    -0.7504993
O           2.5396524    -3.0128813    -0.6597096
C           4.0536566    -1.2023922     1.3434128
O           2.6918929    -1.0548574    -2.2659773
H           3.1039864    -0.9737084     1.8314147
H           4.8225070    -0.5571971     1.7788022
H           4.3164091    -2.2527055     1.5352665
24
201_C8H11NO3S_6-12-13-19 (75,) energy =    -990.0122890
C           1.0213295     0.5314225    -0.2859557
H           1.6963166     1.0378344    -0.9682545
C          -0.0389873     1.2089272     0.2954618
H          -0.2031101     2.2588441     0.0753713
C          -0.8959547     0.5186203     1.1656878
H          -1.7311622     1.0382968     1.6274899
C           1.2362475    -0.8270016    -0.0045585
C          -0.6990728    -0.8253735     1.4423891
H          -1.3608673    -1.3725797     2.1059896
C           0.3681037    -1.5330606     0.8590945
O           0.4858781    -2.8350317     1.1799903
H           1.2074854    -3.2307533     0.6370740
S           2.6175087    -1.6155304    -0.8088331
N           3.9508511    -0.9242764    -0.0152451
C           5.1763692    -0.8555131    -0.8266059
H           5.8643855    -0.1711637    -0.3208810
H           4.9380134    -0.4572090    -1.8122747
H           5.6666860    -1.8336186    -0.9380966
O           2.5239808    -3.0675106    -0.5009273
C           4.1684022    -1.4474885     1.3392141
O           2.7023106    -1.1890208    -2.2061299
H           3.2334970    -1.4211189     1.9051295
H           4.8849635    -0.7902626     1.8404972
H           4.5567782    -2.4749355     1.3376101
24
201_C8H11NO3S_6-12-13-19 (90,) energy =    -990.0109800
C           0.9178760     0.5038544    -0.4287501
H           1.5268544     0.9474552    -1.2095767
C          -0.1352471     1.2071933     0.1383219
H          -0.3569235     2.2172776    -0.1910253
C          -0.9085881     0.5956987     1.1347004
H          -1.7350863     1.1377879     1.5861458
C           1.2020379    -0.8032150    -0.0090874
C          -0.6428427    -0.7023262     1.5472155
H          -1.2445108    -1.1929773     2.3055616
C           0.4137583    -1.4332569     0.9788768
O           0.6069999    -2.6913931     1.4306416
H           1.2460165    -3.1448334     0.8341298
S           2.5986799    -1.6264634    -0.7544025
N           3.9274787    -1.0232110     0.1206864
C           5.0938986    -0.6398694    -0.6896209
H           5.7349025    -0.0144754    -0.0605619
H           4.7703201    -0.0619034    -1.5539999
H           5.6741168    -1.5073550    -1.0361778
O           2.4392572    -3.0764026    -0.4780777
C           4.2745440    -1.8144793     1.3095109
O           2.7491448    -1.1592736    -2.1334325
H           3.3809708    -2.0128577     1.9059409
H           4.9611157    -1.2171238     1.9166091
H           4.7512389    -2.7704523     1.0555076
24
201_C8H11NO3S_6-12-13-19 (105,) energy =    -990.0094916
C           0.8653616     0.4433132    -0.5388416
H           1.4334131     0.8027127    -1.3905641
C          -0.1638800     1.2019900     0.0043587
H          -0.4046056     2.1734450    -0.4155554
C          -0.8863422     0.6962742     1.0922050
H          -1.6924550     1.2819645     1.5256854
C           1.1740799    -0.8128232    -0.0018947
C          -0.5997585    -0.5573343     1.6174280
H          -1.1676989    -0.9704892     2.4448632
C           0.4302583    -1.3414231     1.0761219
O           0.6450900    -2.5560205     1.6305583
H           1.2161737    -3.0790541     1.0233061
S           2.5607838    -1.7062237    -0.6872909
N           3.8963403    -1.1927825     0.2185749
C           4.9240884    -0.4304235    -0.5003860
H           5.4998120     0.1318078     0.2415396
H           4.4583444     0.2727854    -1.1898551
H           5.6071871    -1.0771590    -1.0686401
O           2.3320137    -3.1371201    -0.3747144
C           4.4181809    -2.1380775     1.2131537
O           2.7572160    -1.2668896    -2.0699059
H           3.6010678    -2.5632193     1.7965387
H           5.0656621    -1.5751569     1.8923614
H           4.9958999    -2.9547571     0.7597664
24
201_C8H11NO3S_6-12-13-19 (120,) energy =    -990.0096249
C           0.9601851     0.3524282    -0.7011030
H           1.5245804     0.6285371    -1.5858225
C          -0.0620468     1.1636312    -0.2225808
H          -0.2978941     2.0964395    -0.7248139
C          -0.7841023     0.7589798     0.9064816
H          -1.5850053     1.3850424     1.2904340
C           1.2638907    -0.8534583    -0.0563119
C          -0.5060749    -0.4482018     1.5360428
H          -1.0770860    -0.7846336     2.3955097
C           0.5168453    -1.2835019     1.0631871
O           0.7211614    -2.4500340     1.7123590
H           1.2891508    -3.0240779     1.1505086
S           2.6496184    -1.8100969    -0.6490868
N           3.9506470    -1.3145958     0.2963159
C           4.7648794    -0.2200606    -0.2348862
H           5.3234949     0.2178151     0.5980771
H           4.1249227     0.5557963    -0.6594948
H           5.4698882    -0.5557457    -1.0067850
O           2.3797080    -3.2175644    -0.2718153
C           4.6502275    -2.3050640     1.1181297
O           2.9001260    -1.4443471    -2.0445204
H           3.9398294    -3.0235881     1.5232820
H           5.1273637    -1.7742166     1.9482446
H           5.4206657    -2.8499470     0.5541650
24
201_C8H11NO3S_6-12-13-19 (135,) energy =    -990.0108692
C           0.9664267     0.3020089    -0.7409394
H           1.5276658     0.5233617    -1.6429580
C          -0.0489591     1.1439838    -0.3023142
H          -0.2849234     2.0476057    -0.8552093
C          -0.7634179     0.8077919     0.8538062
H          -1.5584697     1.4589723     1.2069193
C           1.2700263    -0.8650040    -0.0281999
C          -0.4862247    -0.3622301     1.5506508
H          -1.0523683    -0.6456981     2.4321159
C           0.5288476    -1.2286359     1.1187580
O           0.7311888    -2.3583882     1.8276716
H           1.2953929    -2.9651837     1.2976021
S           2.6331895    -1.8728737    -0.5781646
N           3.9141455    -1.3786617     0.4071784
C           4.6155017    -0.1732567    -0.0400642
H           5.2186234     0.1929240     0.7961201
H           3.8932961     0.6045288    -0.3001244
H           5.2668907    -0.3584516    -0.9044416
O           2.3296876    -3.2645253    -0.1680220
C           4.7588145    -2.4211766     0.9998415
O           2.9121750    -1.5615881    -1.9826813
H           4.1412745    -3.2578017     1.3225003
H           5.2559921    -1.9872246     1.8731414
H           5.5245615    -2.7917192     0.3027960
24
201_C8H11NO3S_6-12-13-19 (150,) energy =    -990.0118682
C           1.0016347     0.2851614    -0.7822858
H           1.5789636     0.4708392    -1.6822429
C          -0.0210189     1.1423866    -0.3942675
H          -0.2490193     2.0227289    -0.9865444
C          -0.7533090     0.8518055     0.7637412
H          -1.5541165     1.5157732     1.0779299
C           1.2948951    -0.8511804    -0.0170477
C          -0.4867317    -0.2879266     1.5121386
H          -1.0663360    -0.5356263     2.3955953
C           0.5349038    -1.1712212     1.1309014
O           0.7233233    -2.2717459     1.8848949
H           1.3059571    -2.8954664     1.3956451
S           2.6488451    -1.8941100    -0.5140944
N           3.9091981    -1.3899608     0.5101529
C           4.5109828    -0.1070561     0.1287611
H           5.1507152     0.2184627     0.9542883
H           3.7293831     0.6440480    -0.0087662
H           5.1100182    -0.1766939    -0.7893516
O           2.3227037    -3.2723410    -0.0766333
C           4.8900014    -2.4341650     0.8452045
O           2.9642627    -1.6320885    -1.9224026
H           4.3694243    -3.3526604     1.1134092
H           5.4597563    -2.0814282     1.7102351
H           5.5872005    -2.6404366     0.0200184
24
201_C8H11NO3S_6-12-13-19 (165,) energy =    -990.0116769
C           1.0360435     0.2303919    -0.8588896
H           1.6292295     0.3788668    -1.7554289
C           0.0155304     1.1084144    -0.5162379
H          -0.1978601     1.9685103    -1.1426501
C          -0.7341781     0.8656969     0.6424676
H          -1.5332006     1.5474751     0.9210666
C           1.3092422    -0.8789705    -0.0476578
C          -0.4874990    -0.2471415     1.4359474
H          -1.0807932    -0.4567591     2.3201277
C           0.5310714    -1.1532551     1.1001373
O           0.6982360    -2.2274173     1.8941644
H           1.2894464    -2.8709819     1.4418021
S           2.6442499    -1.9647986    -0.4967566
N           3.9093583    -1.4625827     0.5355580
C           4.3977262    -0.1046055     0.2520799
H           5.0896927     0.1692288     1.0537694
H           3.5659098     0.6025432     0.2661054
H           4.9188906    -0.0354003    -0.7131903
O           2.2901070    -3.3252271    -0.0286634
C           5.0048384    -2.4493297     0.5886451
O           2.9836976    -1.7530167    -1.9094157
H           4.5932164    -3.4392168     0.7871585
H           5.6601393    -2.1660174     1.4174174
H           5.5925249    -2.4757355    -0.3401810
24
201_C8H11NO3S_6-12-13-19 (180,) energy =    -990.0104033
C           1.0780326    -0.1155901    -1.0584771
H           1.6776777    -0.1730744    -1.9612162
C           0.0506834     0.8088121    -0.9434358
H          -0.1634479     1.4927452    -1.7582695
C          -0.7097464     0.8401884     0.2346296
H          -1.5188586     1.5584672     0.3361521
C           1.3562704    -1.0005910    -0.0046119
C          -0.4540195    -0.0414261     1.2743320
H          -1.0457247    -0.0344592     2.1840570
C           0.5805789    -0.9894670     1.1782032
O           0.7621889    -1.8097488     2.2279013
H           1.4352655    -2.4891947     1.9841359
S           2.6916478    -2.1519841    -0.2431540
N           4.0876324    -1.1780593    -0.0566688
C           4.1231703    -0.4281614     1.2112271
H           4.1855374    -1.0834107     2.0921830
H           3.2438862     0.2127120     1.2944642
H           5.0093301     0.2121423     1.1829682
O           2.6069548    -3.1403776     0.8687519
C           5.3081106    -1.9939213    -0.2273568
O           2.7201613    -2.6492057    -1.6180073
H           5.2401608    -2.5556470    -1.1603750
H           5.4681228    -2.6875129     0.6097558
H           6.1560051    -1.3064750    -0.2939290
