25
077_C11H10N2O2_21-0-5-12 (-165,) energy =    -685.1262655
N           1.6936581    -1.1686730    -0.7387080
C           1.8483438    -0.2212695    -1.8556170
H           2.8065416     0.2851210    -1.7644786
H           1.0398595     0.5158945    -1.8463019
H           1.8096587    -0.7640906    -2.8035946
C           2.7523096    -1.4967614     0.1357358
C           5.5106904     1.5478274     1.3943227
H           6.2159745     2.3012355     1.7346218
C           5.9332801     0.2297996     1.2016202
H           6.9671920    -0.0441075     1.3923545
C           5.0272905    -0.7380612     0.7752801
H           5.3324018    -1.7717275     0.6477966
C           3.6947542    -0.3917838     0.5104325
C           3.2741110     0.9303814     0.7140271
H           2.2348332     1.1986741     0.5478936
C           4.1785831     1.8940875     1.1593249
H           3.8417786     2.9133435     1.3271041
O           2.8786402    -2.6162955     0.6008479
C          -1.0848416    -3.1047611    -1.5525753
H          -1.8343891    -3.4619746    -2.2440820
N          -0.0754671    -2.2377676    -1.9593067
C           0.6210737    -2.0428958    -0.8768719
O           0.1614258    -2.6889851     0.2188189
C          -0.9366414    -3.3840633    -0.2367241
H          -1.4438770    -4.0010427     0.4867007
25
077_C11H10N2O2_21-0-5-12 (-150,) energy =    -685.1253765
N           1.8130119    -1.2553323    -0.8888021
C           1.9362634    -0.3006683    -1.9991940
H           2.9127872     0.1777159    -1.9453092
H           1.1493503     0.4578277    -1.9487582
H           1.8409188    -0.8310428    -2.9509106
C           2.9004865    -1.5860520    -0.0459569
C           5.3761756     1.5557375     1.5176654
H           6.0090007     2.3343948     1.9349461
C           5.8896663     0.2718794     1.3130306
H           6.9216526     0.0506086     1.5707220
C           5.0765570    -0.7280244     0.7865393
H           5.4507929    -1.7366041     0.6432704
C           3.7469544    -0.4484939     0.4386587
C           3.2353071     0.8394519     0.6518051
H           2.1971108     1.0543649     0.4175173
C           4.0469410     1.8353590     1.1944943
H           3.6399040     2.8274351     1.3692299
O           3.0963882    -2.7281279     0.3297574
C          -1.2141385    -2.8988496    -1.3513416
H          -2.0939514    -3.1403121    -1.9304537
N          -0.2103308    -2.0810956    -1.8633296
C           0.6639754    -2.0274667    -0.8989915
O           0.3349465    -2.7264888     0.2104908
C          -0.8833681    -3.2953230    -0.1011893
H          -1.3202072    -3.9272671     0.6543568
25
077_C11H10N2O2_21-0-5-12 (-135,) energy =    -685.1227576
N           1.9158415    -1.3537324    -1.0667453
C           2.0076109    -0.3703406    -2.1509523
H           3.0010184     0.0771621    -2.1335520
H           1.2473116     0.4095319    -2.0435721
H           1.8511430    -0.8695278    -3.1118369
C           3.0181811    -1.6636639    -0.2266419
C           5.2202441     1.5340078     1.6065752
H           5.7826326     2.3272764     2.0917114
C           5.8125043     0.2855450     1.3941946
H           6.8354928     0.1068564     1.7133973
C           5.0893260    -0.7324456     0.7794569
H           5.5244630    -1.7145365     0.6249394
C           3.7713543    -0.5073322     0.3541737
C           3.1812827     0.7454708     0.5736328
H           2.1515698     0.9182011     0.2767646
C           3.9028998     1.7595272     1.2029555
H           3.4349673     2.7235691     1.3818552
O           3.2783688    -2.8123907     0.0796669
C          -1.2840304    -2.6912900    -1.1741822
H          -2.2534001    -2.8188685    -1.6345648
N          -0.2887457    -1.9273306    -1.7801863
C           0.7090743    -2.0106264    -0.9456864
O           0.4748228    -2.7549541     0.1583118
C          -0.8254755    -3.1969493    -0.0073198
H          -1.2118161    -3.8363758     0.7689954
25
077_C11H10N2O2_21-0-5-12 (-120,) energy =    -685.1191631
N           2.0133608    -1.4514290    -1.2158010
C           2.0800871    -0.4422672    -2.2766948
H           3.0929508    -0.0392691    -2.3108055
H           1.3638344     0.3685686    -2.1089372
H           1.8461213    -0.9093900    -3.2380234
C           3.1331602    -1.7307256    -0.3731255
C           5.0561821     1.5007033     1.6943680
H           5.5480295     2.3032343     2.2374461
C           5.7271413     0.2945381     1.4705293
H           6.7401849     0.1583865     1.8385929
C           5.0950340    -0.7352427     0.7805146
H           5.5915955    -1.6854969     0.6127715
C           3.7897856    -0.5640978     0.2934241
C           3.1213821     0.6468965     0.5229743
H           2.1018791     0.7782296     0.1749329
C           3.7519421     1.6724803     1.2267578
H           3.2237860     2.6034595     1.4126451
O           3.4701664    -2.8748374    -0.1417252
C          -1.2875713    -2.4835375    -0.9680982
H          -2.3142505    -2.5003530    -1.3053173
N          -0.3105572    -1.7658577    -1.6572692
C           0.7709039    -1.9852930    -0.9630512
O           0.6109556    -2.7789372     0.1204987
C          -0.7376319    -3.0982491     0.1021036
H          -1.0821889    -3.7462953     0.8907075
25
077_C11H10N2O2_21-0-5-12 (-105,) energy =    -685.1174514
N           1.9162901    -0.9535624    -1.4259826
C           1.9905151    -0.7996780    -2.8896704
H           2.2118304    -1.7485725    -3.3906660
H           2.7734767    -0.0725529    -3.1187042
H           1.0296424    -0.4238605    -3.2425392
C           3.2091279    -1.2976152    -0.8190103
C           4.7669605     1.4050233     2.1046381
H           5.1746451     2.0867756     2.8463959
C           5.4902530     0.2667240     1.7316271
H           6.4573473     0.0642517     2.1831678
C           4.9700272    -0.6060034     0.7827458
H           5.5124537    -1.4952284     0.4788370
C           3.7196118    -0.3459372     0.1957862
C           2.9980955     0.7959835     0.5742008
H           2.0353772     0.9896905     0.1149128
C           3.5233149     1.6678407     1.5265823
H           2.9631347     2.5519582     1.8174594
O           3.8322703    -2.2601779    -1.2126158
C          -1.0075689    -2.7019083    -0.7079666
H          -1.9701125    -3.1195441    -0.9673959
N          -0.2185108    -2.0545227    -1.6598020
C           0.8366419    -1.6971383    -0.9885688
O           0.8318843    -2.0504516     0.3234739
C          -0.3774470    -2.7094804     0.4867014
H          -0.5810578    -3.0950304     1.4718577
25
077_C11H10N2O2_21-0-5-12 (-90,) energy =    -685.1201425
N           1.9800621    -0.9565557    -1.5501584
C           1.9668110    -0.9626771    -3.0260985
H           2.1016062    -1.9691271    -3.4346136
H           2.7733401    -0.3163322    -3.3768255
H           1.0060604    -0.5670439    -3.3561051
C           3.2938182    -1.2234239    -0.9794022
C           4.6200536     1.2832431     2.2250940
H           4.9729042     1.9184512     3.0332917
C           5.3960604     0.2005849     1.7983946
H           6.3500848    -0.0067725     2.2749045
C           4.9460772    -0.6111002     0.7625685
H           5.5330158    -1.4541400     0.4132360
C           3.7129644    -0.3470626     0.1438180
C           2.9383679     0.7394232     0.5758055
H           1.9931525     0.9479677     0.0874345
C           3.3939264     1.5515488     1.6128106
H           2.7939402     2.3955196     1.9412644
O           4.0385742    -2.0197621    -1.5138243
C          -0.9410841    -2.5643960    -0.5397169
H          -1.9313312    -2.9601836    -0.7153110
N          -0.2044395    -1.9765323    -1.5685944
C           0.9074010    -1.6306480    -0.9891283
O           0.9865745    -1.9363744     0.3316967
C          -0.2285565    -2.5460187     0.6073767
H          -0.3733636    -2.8826559     1.6204277
25
077_C11H10N2O2_21-0-5-12 (-75,) energy =    -685.1237723
N           2.0448722    -0.9890070    -1.6466337
C           1.9571856    -1.0875248    -3.1163696
H           2.0594106    -2.1206179    -3.4632693
H           2.7561890    -0.4833112    -3.5468705
H           0.9855847    -0.6995374    -3.4217717
C           3.3718225    -1.1411170    -1.1111851
C           4.4942387     1.1924997     2.3018507
H           4.7981808     1.7871922     3.1592441
C           5.3050992     0.1454193     1.8537580
H           6.2388698    -0.0762267     2.3629081
C           4.9175070    -0.6119984     0.7526857
H           5.5375476    -1.4219546     0.3827519
C           3.7096295    -0.3343418     0.0940806
C           2.9002867     0.7174808     0.5466373
H           1.9770252     0.9474321     0.0259906
C           3.2955577     1.4789532     1.6449612
H           2.6698185     2.2989212     1.9860885
O           4.2085984    -1.7664022    -1.7355252
C          -0.8917422    -2.3925621    -0.4035166
H          -1.9186734    -2.7141554    -0.5032395
N          -0.2028633    -1.8297728    -1.4771646
C           0.9759966    -1.5779679    -0.9875217
O           1.1414138    -1.9240187     0.3137752
C          -0.0880026    -2.4495646     0.6805884
H          -0.1740056    -2.7924605     1.6982084
25
077_C11H10N2O2_21-0-5-12 (-60,) energy =    -685.1269727
N           2.1051649    -1.0161323    -1.7283506
C           1.9828151    -1.1799734    -3.1884802
H           2.1416623    -2.2202823    -3.4911638
H           2.7346148    -0.5534815    -3.6683310
H           0.9819077    -0.8620143    -3.4786138
C           3.4280488    -1.0486442    -1.2098174
C           4.3616768     1.1185263     2.3708569
H           4.6212093     1.6724175     3.2691490
C           5.2138615     0.1175229     1.8962494
H           6.1355723    -0.1095214     2.4247542
C           4.8845853    -0.5869466     0.7416642
H           5.5405935    -1.3565895     0.3483866
C           3.6922560    -0.3064780     0.0587754
C           2.8426119     0.7013824     0.5363994
H           1.9328955     0.9430388    -0.0036648
C           3.1803619     1.4127564     1.6864917
H           2.5236079     2.2001610     2.0457755
O           4.3292692    -1.5262801    -1.8787987
C          -0.8697052    -2.1275463    -0.2957473
H          -1.9359461    -2.3026760    -0.3141654
N          -0.2134845    -1.5462662    -1.3777574
C           1.0303555    -1.5006063    -0.9977816
O           1.2658741    -2.0036958     0.2399430
C           0.0167737    -2.3950473     0.6891123
H          -0.0228172    -2.8161773     1.6799518
25
077_C11H10N2O2_21-0-5-12 (-45,) energy =    -685.1291638
N           1.0344006    -0.2827626    -0.9046530
C          -0.2588438     0.2376929    -1.3801215
H          -0.2000765     0.5509289    -2.4281791
H          -0.5289194     1.1008771    -0.7721617
H          -1.0005579    -0.5528106    -1.2687042
C           2.0303095     0.6684567    -0.6091667
C           5.2643401    -0.3068895     2.0385038
H           6.0849108    -0.5282301     2.7158071
C           4.0845447    -1.0511550     2.1045542
H           3.9811234    -1.8456522     2.8384053
C           3.0319783    -0.7737175     1.2336258
H           2.1109954    -1.3446865     1.3011835
C           3.1517545     0.2593475     0.2931208
C           4.3304253     1.0165682     0.2457510
H           4.3981496     1.8296556    -0.4695837
C           5.3852527     0.7283342     1.1077257
H           6.2994316     1.3134477     1.0586862
O           1.8936724     1.8247007    -0.9798566
C           1.2800705    -3.6641811    -1.7095832
H           0.8657719    -4.6556728    -1.8241696
N           0.5059410    -2.6037660    -1.2501409
C           1.3276304    -1.5949562    -1.2448371
O           2.5847518    -1.8878170    -1.6682714
C           2.5426723    -3.2384359    -1.9466402
H           3.4645857    -3.6876322    -2.2773710
25
077_C11H10N2O2_21-0-5-12 (-30,) energy =    -685.1300042
N           1.0526476    -0.2280528    -0.9754821
C          -0.2315292     0.2737885    -1.4890663
H          -0.1361587     0.6071426    -2.5284500
H          -0.5420970     1.1216368    -0.8791698
H          -0.9624937    -0.5318276    -1.4217093
C           1.9842852     0.7197327    -0.5306730
C           5.2939068    -0.3823853     1.9733232
H           6.1335531    -0.6338722     2.6158115
C           4.1171162    -1.1313057     2.0366339
H           4.0343440    -1.9595443     2.7349692
C           3.0405792    -0.8156461     1.2086769
H           2.1240380    -1.3943983     1.2748276
C           3.1328026     0.2608121     0.3149292
C           4.3068398     1.0250130     0.2750957
H           4.3523271     1.8754149    -0.3973555
C           5.3866678     0.6969950     1.0909905
H           6.2979543     1.2868767     1.0449967
O           1.8042240     1.9051642    -0.7711825
C           1.3270053    -3.6532604    -1.5581572
H           0.9277159    -4.6569624    -1.5884195
N           0.5553965    -2.5779758    -1.1324211
C           1.3560906    -1.5572971    -1.2282774
O           2.5980882    -1.8578365    -1.6935868
C           2.5696440    -3.2214834    -1.8799015
H           3.4843315    -3.6785134    -2.2203267
25
077_C11H10N2O2_21-0-5-12 (-15,) energy =    -685.1295229
N           1.0530851    -0.2066805    -1.0637673
C          -0.2239662     0.2808901    -1.6085582
H          -0.0925975     0.6527989    -2.6307458
H          -0.5799751     1.0998909    -0.9843337
H          -0.9376238    -0.5427884    -1.6002497
C           1.9034110     0.7313000    -0.4706290
C           5.2936562    -0.4110686     1.9073921
H           6.1532141    -0.6719063     2.5190760
C           4.1362490    -1.1900990     1.9606877
H           4.0879332    -2.0512503     2.6214554
C           3.0344207    -0.8631388     1.1709174
H           2.1339756    -1.4676068     1.2299596
C           3.0814013     0.2551129     0.3263891
C           4.2347397     1.0507509     0.3007246
H           4.2450806     1.9350852    -0.3279808
C           5.3408062     0.7104180     1.0756687
H           6.2362818     1.3246677     1.0385244
O           1.6656080     1.9251076    -0.5938484
C           1.3127980    -3.6631388    -1.4452580
H           0.9135455    -4.6666404    -1.4089021
N           0.5506013    -2.5641140    -1.0675043
C           1.3485572    -1.5511091    -1.2369738
O           2.5805661    -1.8806643    -1.7114875
C           2.5488881    -3.2506587    -1.8166185
H           3.4562499    -3.7286922    -2.1480675
25
077_C11H10N2O2_21-0-5-12 (0,) energy =    -685.1279120
N           1.0925014    -0.1757938    -1.1410640
C          -0.1792196     0.3086805    -1.7045491
H          -0.0215193     0.7138564    -2.7100786
H          -0.5656411     1.1027044    -1.0664794
H          -0.8816006    -0.5236848    -1.7449968
C           1.8538945     0.7338891    -0.3996420
C           5.3218239    -0.4155823     1.8636135
H           6.2005629    -0.6772142     2.4470328
C           4.1900521    -1.2318980     1.9009725
H           4.1800513    -2.1235533     2.5217889
C           3.0639392    -0.9038688     1.1462857
H           2.1845349    -1.5395478     1.1940938
C           3.0599792     0.2527085     0.3538469
C           4.1869057     1.0858753     0.3475099
H           4.1584925     2.0000843    -0.2363159
C           5.3180616     0.7441504     1.0848481
H           6.1929376     1.3880281     1.0609251
O           1.5543882     1.9198567    -0.4094788
C           1.2858127    -3.6536929    -1.3601568
H           0.8694577    -4.6473306    -1.2762082
N           0.5445923    -2.5251698    -1.0316604
C           1.3589930    -1.5348940    -1.2489393
O           2.5826764    -1.9082997    -1.7134000
C           2.5273345    -3.2793366    -1.7547209
H           3.4242352    -3.7884732    -2.0681067
25
077_C11H10N2O2_21-0-5-12 (15,) energy =    -685.1276574
N           1.2724171    -0.2287753    -1.3391816
C           0.2555322     0.2598075    -2.2821831
H           0.6441340     1.1420583    -2.7901106
H          -0.6640103     0.5358636    -1.7538791
H           0.0395015    -0.5257834    -3.0082546
C           2.0532182     0.7259987    -0.6811749
C           5.3806288    -0.3552854     1.8105797
H           6.2299022    -0.6007470     2.4426595
C           5.1432065    -1.0858943     0.6448754
H           5.8122353    -1.8937016     0.3612188
C           4.0488747    -0.7792772    -0.1628928
H           3.8823957    -1.3439475    -1.0754282
C           3.1875659     0.2698409     0.1864764
C           3.4496225     1.0196743     1.3406971
H           2.7973647     1.8524979     1.5821042
C           4.5314635     0.6983762     2.1568866
H           4.7176880     1.2751435     3.0586544
O           1.8026528     1.9144629    -0.8255479
C           1.1831174    -3.5098308    -0.1424649
H           1.0612481    -4.2502992     0.6350723
N           1.0567638    -2.1521431     0.1210473
C           1.2736598    -1.5804138    -1.0237540
O           1.5142835    -2.4545407    -2.0491257
C           1.4430026    -3.6924060    -1.4604133
H           1.5825573    -4.5435497    -2.1074452
25
077_C11H10N2O2_21-0-5-12 (30,) energy =    -685.1285678
N           1.3423961    -0.2556898    -1.3959870
C           0.3435442     0.2383737    -2.3565147
H           0.7264763     1.1464046    -2.8214279
H          -0.6019798     0.4738263    -1.8549753
H           0.1781951    -0.5282156    -3.1152383
C           1.9982458     0.7022405    -0.6097099
C           5.4186858    -0.3188024     1.7756355
H           6.2911269    -0.5500891     2.3809783
C           5.1908233    -1.0121593     0.5852179
H           5.8897840    -1.7764019     0.2565722
C           4.0680321    -0.7233193    -0.1888787
H           3.9057019    -1.2567589    -1.1207002
C           3.1679154     0.2704372     0.2199069
C           3.4168915     0.9818861     1.4008704
H           2.7295971     1.7702042     1.6898230
C           4.5295207     0.6791173     2.1818844
H           4.7075901     1.2257365     3.1038461
O           1.6481617     1.8722385    -0.6629013
C           1.1222744    -3.4877267    -0.0888211
H           0.9864935    -4.1964101     0.7155622
N           1.0664406    -2.1173588     0.1337073
C           1.2788081    -1.5945479    -1.0355281
O           1.4511443    -2.5088966    -2.0365523
C           1.3363571    -3.7243207    -1.4058729
H           1.4158334    -4.6003691    -2.0291865
25
077_C11H10N2O2_21-0-5-12 (45,) energy =    -685.1282360
N           1.4309359    -0.2883732    -1.4310046
C           0.4659686     0.2326793    -2.4152800
H           0.8609893     1.1587529    -2.8324354
H          -0.5030020     0.4440846    -1.9494334
H           0.3442991    -0.5081651    -3.2067811
C           1.9576527     0.6501622    -0.5201378
C           5.4848706    -0.2622696     1.7471387
H           6.3832069    -0.4675275     2.3233204
C           5.2566783    -0.9365528     0.5456719
H           5.9803585    -1.6600245     0.1803416
C           4.1022553    -0.6803842    -0.1922035
H           3.9374281    -1.1955281    -1.1334817
C           3.1697671     0.2611153     0.2651551
C           3.4150146     0.9506276     1.4601781
H           2.6967144     1.6943757     1.7890250
C           4.5619389     0.6824393     2.2028668
H           4.7394437     1.2129182     3.1343095
O           1.4966947     1.7801325    -0.4778055
C           1.0401617    -3.4880093    -0.0845015
H           0.8826196    -4.1796647     0.7306552
N           1.0724130    -2.1139812     0.1252478
C           1.2836437    -1.6171020    -1.0559960
O           1.3757753    -2.5470260    -2.0503646
C           1.2041393    -3.7493506    -1.4033234
H           1.2125468    -4.6331109    -2.0204872
25
077_C11H10N2O2_21-0-5-12 (60,) energy =    -685.1263425
N           1.4932413    -0.3676868    -1.4352287
C           0.5799600     0.1853672    -2.4547759
H           0.9930598     1.1281982    -2.8135821
H          -0.4177534     0.3734032    -2.0434528
H           0.5156686    -0.5247525    -3.2801834
C           1.8927209     0.5466403    -0.4212399
C           5.5443580    -0.1545506     1.7158748
H           6.4724584    -0.3083460     2.2600708
C           5.3179096    -0.8322898     0.5159613
H           6.0716739    -1.5078442     0.1209730
C           4.1268197    -0.6406632    -0.1819811
H           3.9600314    -1.1554890    -1.1225530
C           3.1547451     0.2386991     0.3151434
C           3.3940061     0.9276771     1.5124301
H           2.6390252     1.6172786     1.8752843
C           4.5802458     0.7266357     2.2127113
H           4.7556619     1.2578954     3.1440903
O           1.3059414     1.6073782    -0.2922565
C           0.9247824    -3.5339060    -0.0749350
H           0.7552920    -4.2146125     0.7470147
N           1.0620907    -2.1650792     0.1329877
C           1.2525756    -1.6824364    -1.0583112
O           1.2365653    -2.6121531    -2.0543573
C           1.0107303    -3.8034651    -1.3986421
H           0.9278429    -4.6829973    -2.0160999
25
077_C11H10N2O2_21-0-5-12 (75,) energy =    -685.1229714
N           1.5461849    -0.4912900    -1.4009414
C           0.7106969     0.1097681    -2.4625420
H           1.1494729     1.0680373    -2.7424057
H          -0.3187455     0.2774335    -2.1284020
H           0.7186531    -0.5581143    -3.3245467
C           1.8421990     0.3958474    -0.3075445
C           5.6267982     0.0077534     1.6635290
H           6.5870779    -0.0695100     2.1666223
C           5.3957192    -0.7087690     0.4872156
H           6.1764267    -1.3394630     0.0710767
C           4.1647791    -0.6136726    -0.1592974
H           3.9891050    -1.1566161    -1.0816265
C           3.1566779     0.2063209     0.3670947
C           3.3970600     0.9291234     1.5452555
H           2.6088346     1.5647127     1.9349230
C           4.6252966     0.8276338     2.1915088
H           4.8041676     1.3867207     3.1057585
O           1.1254094     1.3548019    -0.0913632
C           0.8009960    -3.6320640    -0.0762558
H           0.6472984    -4.3206701     0.7422650
N           1.0834991    -2.2876918     0.1514835
C           1.2012219    -1.7868377    -1.0425611
O           1.0059554    -2.6751115    -2.0539805
C           0.7369514    -3.8664162    -1.4067893
H           0.5157907    -4.7131194    -2.0356439
25
077_C11H10N2O2_21-0-5-12 (90,) energy =    -685.1189616
N           1.6053121    -0.6189890    -1.3357330
C           0.8963048     0.0613059    -2.4393288
H           1.4136015     0.9987849    -2.6506552
H          -0.1479292     0.2789986    -2.1902757
H           0.9406511    -0.5757458    -3.3233407
C           1.8175566     0.2341021    -0.1719249
C           5.7006892     0.2084677     1.6245461
H           6.6850657     0.2191085     2.0851228
C           5.4757260    -0.5561336     0.4777474
H           6.2838832    -1.1384819     0.0441163
C           4.2145885    -0.5721244    -0.1151374
H           4.0353319    -1.1542959    -1.0119963
C           3.1701930     0.1827487     0.4377090
C           3.4023124     0.9497692     1.5908465
H           2.5824186     1.5274375     2.0045707
C           4.6619019     0.9618078     2.1805755
H           4.8370962     1.5559400     3.0731142
O           0.9740601     1.0472397     0.1439079
C           0.6547561    -3.7425171    -0.1215483
H           0.5145746    -4.4655751     0.6693686
N           1.1046512    -2.4520831     0.1483540
C           1.1461391    -1.8875592    -1.0235399
O           0.7517310    -2.6790519    -2.0542282
C           0.4301480    -3.8828394    -1.4469239
H           0.0612012    -4.6600159    -2.0955102
25
077_C11H10N2O2_21-0-5-12 (105,) energy =    -685.1158091
N           1.6554436    -0.7579063    -1.2528210
C           1.1245351     0.0131295    -2.3910690
H           1.7635652     0.8871072    -2.5382690
H           0.0933988     0.3457334    -2.2228995
H           1.1676683    -0.6070999    -3.2871976
C           1.8110549     0.0587327    -0.0386927
C           5.7572944     0.4385246     1.5591900
H           6.7566993     0.5466363     1.9724467
C           5.5467656    -0.3834803     0.4501640
H           6.3804199    -0.9159542     0.0011505
C           4.2662075    -0.5233334    -0.0821687
H           4.0894043    -1.1573943    -0.9434968
C           3.1883672     0.1626802     0.4962538
C           3.4055999     0.9854323     1.6145987
H           2.5584868     1.5041118     2.0511543
C           4.6848332     1.1229464     2.1413436
H           4.8503540     1.7603523     3.0053633
O           0.8687437     0.6838266     0.3955070
C           0.4674150    -3.8598025    -0.2248349
H           0.3259249    -4.6385376     0.5112887
N           1.1002891    -2.6631448     0.1019628
C           1.0811404    -1.9918891    -1.0134685
O           0.4894141    -2.6264986    -2.0566047
C           0.0952856    -3.8470465    -1.5238757
H          -0.4142927    -4.5170666    -2.1960684
25
077_C11H10N2O2_21-0-5-12 (120,) energy =    -685.1191588
N           1.3924516    -0.6870535    -0.9695387
C           1.9532812    -0.2089327    -2.2358204
H           2.5245498     0.6998029    -2.0427006
H           1.1408208     0.0185560    -2.9328079
H           2.5989300    -0.9616134    -2.6996263
C           1.6447790    -0.0114151     0.2647884
C           5.7006986     0.7548638     1.4391478
H           6.7209240     0.9461206     1.7608200
C           5.4434492    -0.2305422     0.4841556
H           6.2603865    -0.8134833     0.0682020
C           4.1357355    -0.4725764     0.0646031
H           3.9382982    -1.2508530    -0.6655079
C           3.0738500     0.2641049     0.6084519
C           3.3386424     1.2425089     1.5795485
H           2.5045134     1.7904658     2.0057073
C           4.6456798     1.4910415     1.9869435
H           4.8445245     2.2543266     2.7340176
O           0.7398253     0.2386191     1.0358455
C          -0.1174220    -3.7494185    -1.5713362
H          -0.4562937    -4.5383599    -2.2277132
N           0.4844989    -2.5967521    -2.0747896
C           0.7468013    -1.9010301    -1.0037890
O           0.3769755    -2.4753389     0.1635948
C          -0.1881914    -3.6801676    -0.2237828
H          -0.5673651    -4.3024936     0.5696272
25
077_C11H10N2O2_21-0-5-12 (135,) energy =    -685.1227576
N           1.5077727    -0.8366306    -0.9092884
C           2.0491628    -0.3294963    -2.1743098
H           2.6626361     0.5465871    -1.9656072
H           1.2263129    -0.0465395    -2.8375592
H           2.6498793    -1.0909169    -2.6814247
C           1.7340878    -0.1830386     0.3313373
C           5.7346264     0.9409215     1.4100152
H           6.7409412     1.2214245     1.7092506
C           5.5430215    -0.0945908     0.4932994
H           6.3974156    -0.6278846     0.0859098
C           4.2529723    -0.4517022     0.1019735
H           4.1065561    -1.2685585    -0.5977646
C           3.1436295     0.2191707     0.6359988
C           3.3433309     1.2459054     1.5711134
H           2.4744295     1.7393074     1.9945971
C           4.6322502     1.6106859     1.9491027
H           4.7797144     2.4124969     2.6672098
O           0.8407172    -0.0418453     1.1453755
C          -0.3771011    -3.6504594    -1.6637485
H          -0.8443183    -4.3313148    -2.3609184
N           0.3028015    -2.5162698    -2.1029122
C           0.7140392    -1.9612227    -0.9975861
O           0.3750736    -2.6159760     0.1357495
C          -0.3406789    -3.7110335    -0.3137790
H          -0.7282465    -4.3688529     0.4463957
25
077_C11H10N2O2_21-0-5-12 (150,) energy =    -685.1253770
N           1.6351695    -1.0162892    -0.8486960
C           2.1484955    -0.4692229    -2.1122231
H           2.7972626     0.3768919    -1.8919135
H           1.3127294    -0.1366191    -2.7343706
H           2.7072769    -1.2294765    -2.6661984
C           1.8360657    -0.3727149     0.3956656
C           5.7416754     1.1147575     1.3846776
H           6.7238574     1.4881790     1.6617555
C           5.6282112     0.0356325     0.5059750
H           6.5200709    -0.4392052     0.1065364
C           4.3685791    -0.4404573     0.1431288
H           4.2830988    -1.2908838    -0.5264532
C           3.2120885     0.1548742     0.6668007
C           3.3345194     1.2238124     1.5664674
H           2.4321934     1.6561639     1.9867890
C           4.5924478     1.7079933     1.9148710
H           4.6791260     2.5430366     2.6044698
O           0.9570280    -0.3151220     1.2369239
C          -0.6204142    -3.5138734    -1.7167540
H          -1.2144567    -4.0602755    -2.4352950
N           0.1462132    -2.4146117    -2.0944314
C           0.7007538    -2.0292215    -0.9803654
O           0.3826164    -2.7723848     0.1034085
C          -0.4843696    -3.7273320    -0.3881015
H          -0.8855864    -4.4210408     0.3321969
25
077_C11H10N2O2_21-0-5-12 (165,) energy =    -685.1262658
N           1.7474208    -1.1923670    -0.8044547
C           2.2543023    -0.6100603    -2.0590496
H           2.9348644     0.2055402    -1.8253221
H           1.4172919    -0.2307315    -2.6508355
H           2.7784481    -1.3688263    -2.6478467
C           1.9519942    -0.5847189     0.4538988
C           5.7172137     1.2864116     1.3364611
H           6.6636354     1.7578505     1.5872335
C           5.6949893     0.1659888     0.5035143
H           6.6230753    -0.2434134     0.1142623
C           4.4806501    -0.4352990     0.1735327
H           4.4670253    -1.3162340    -0.4615556
C           3.2787359     0.0755699     0.6843403
C           3.3113029     1.1838565     1.5423401
H           2.3779053     1.5483993     1.9590853
C           4.5232040     1.7942575     1.8555294
H           4.5388309     2.6607854     2.5107147
O           1.1082442    -0.6258065     1.3324355
C          -0.8556116    -3.3043541    -1.7524930
H          -1.5723134    -3.6802437    -2.4684805
N          -0.0066872    -2.2459047    -2.0613004
C           0.6882519    -2.0776242    -0.9734910
O           0.3912459    -2.9360518     0.0286361
C          -0.6204988    -3.7164304    -0.4851042
H          -1.0310174    -4.4614673     0.1764840
25
077_C11H10N2O2_21-0-5-12 (180,) energy =    -685.1250231
N           1.8591790    -1.3581965    -0.7649082
C           2.3684039    -0.7550115    -2.0116217
H           3.1209744    -0.0085675    -1.7730456
H           1.5456512    -0.2841174    -2.5551003
H           2.8089273    -1.5284024    -2.6478433
C           2.1045279    -0.8089089     0.5106884
C           5.6663512     1.4694923     1.2848452
H           6.5600679     2.0452542     1.5096593
C           5.7572679     0.3134247     0.5072617
H           6.7222966    -0.0198609     0.1355473
C           4.6092599    -0.4208550     0.2097113
H           4.6853515    -1.3279941    -0.3833537
C           3.3610173    -0.0082209     0.6980264
C           3.2820265     1.1345615     1.5055348
H           2.3181021     1.4223887     1.9126350
C           4.4267260     1.8784107     1.7830589
H           4.3541872     2.7716131     2.3973383
O           1.3239239    -0.9651671     1.4341863
C          -1.0473814    -3.0397132    -1.7172344
H          -1.8674409    -3.2281745    -2.3950837
N          -0.1163633    -2.0366279    -1.9643460
C           0.6930668    -2.1043208    -0.9483203
O           0.3975323    -3.0750789    -0.0533833
C          -0.7393063    -3.6626133    -0.5551923
H          -1.1674151    -4.4567750     0.0343474
