25
077_C11H10N2O2_5-0-21-20 (-165,) energy =    -685.1241071
N           1.6833546    -1.1880709    -0.8624511
C           2.4880292    -0.9409212    -2.0701364
H           3.0788931    -0.0392413    -1.9257437
H           1.8124236    -0.8053600    -2.9170122
H           3.1453845    -1.7861042    -2.2951735
C           1.9180103    -0.5621125     0.3744537
C           5.6784485     1.3388456     1.2397084
H           6.6194629     1.8201903     1.4918720
C           5.6779193     0.0999821     0.5965154
H           6.6170225    -0.3913996     0.3574437
C           4.4708591    -0.5144471     0.2621824
H           4.4786305    -1.4843914    -0.2263602
C           3.2527023     0.1015404     0.5815146
C           3.2613977     1.3302036     1.2568333
H           2.3142756     1.7799292     1.5373755
C           4.4674054     1.9532850     1.5687396
H           4.4637658     2.9128654     2.0782871
O           1.0861477    -0.5514074     1.2654362
C          -0.5489188    -3.6775594    -1.8189839
H          -0.8852849    -4.4408519    -2.5060018
N           0.5925416    -2.9255688    -2.0729202
C           0.6711929    -2.1245543    -1.0458638
O          -0.3083219    -2.2783251    -0.1292916
C          -1.0909150    -3.2925343    -0.6410280
H          -1.9420193    -3.5795988    -0.0457934
25
077_C11H10N2O2_5-0-21-20 (-150,) energy =    -685.1231803
N           1.6905607    -1.2190315    -0.8311860
C           2.4912893    -0.9710140    -2.0410104
H           3.0655647    -0.0562365    -1.9084350
H           1.8121582    -0.8548829    -2.8877870
H           3.1657114    -1.8046524    -2.2589936
C           1.9854746    -0.6908692     0.4358010
C           5.6609984     1.4071343     1.2133700
H           6.5813710     1.9367217     1.4440910
C           5.7082443     0.1825594     0.5453232
H           6.6647228    -0.2499534     0.2649006
C           4.5269250    -0.4934782     0.2383093
H           4.5738859    -1.4515562    -0.2710976
C           3.2875186     0.0453799     0.6103359
C           3.2501342     1.2592264     1.3108076
H           2.2901042     1.6497563     1.6333874
C           4.4291109     1.9446563     1.5949255
H           4.3883689     2.8926429     2.1242063
O           1.2209411    -0.8074009     1.3784677
C          -0.5705980    -3.7026054    -1.7482903
H          -0.8743523    -4.5317152    -2.3711736
N           0.6535891    -3.0693988    -1.9286159
C           0.6641402    -2.1442411    -1.0108173
O          -0.4417875    -2.1024857    -0.2352607
C          -1.2296343    -3.1235697    -0.7174547
H          -2.1687071    -3.2782395    -0.2119299
25
077_C11H10N2O2_5-0-21-20 (-135,) energy =    -685.1224466
N           1.7322255    -1.2586301    -0.8728866
C           2.5177715    -0.9996796    -2.0888504
H           3.0971805    -0.0873538    -1.9571503
H           1.8291432    -0.8676117    -2.9263972
H           3.1879838    -1.8325893    -2.3239392
C           2.0493211    -0.7894136     0.4088194
C           5.6322098     1.4604483     1.1939640
H           6.5296372     2.0276923     1.4255577
C           5.7257421     0.2669246     0.4767401
H           6.6960429    -0.1043529     0.1585466
C           4.5733156    -0.4572211     0.1685667
H           4.6575570    -1.3920600    -0.3778148
C           3.3174132     0.0021664     0.5882775
C           3.2349972     1.1839090     1.3382872
H           2.2644498     1.5113361     1.6974741
C           4.3839725     1.9178841     1.6238593
H           4.3076472     2.8407756     2.1921543
O           1.3178230    -0.9986150     1.3625579
C          -0.5554896    -3.7656708    -1.6746247
H          -0.8378846    -4.6745960    -2.1861669
N           0.7286507    -3.2427874    -1.7741417
C           0.6898306    -2.1725039    -1.0361317
O          -0.5091856    -1.9293118    -0.4556864
C          -1.2998962    -2.9744620    -0.8649727
H          -2.3072925    -2.9909802    -0.4819925
25
077_C11H10N2O2_5-0-21-20 (-120,) energy =    -685.1219396
N           1.7789121    -1.2893418    -0.8984639
C           2.5054908    -0.9729025    -2.1350154
H           3.0933325    -0.0672312    -1.9913061
H           1.7812759    -0.7965707    -2.9351118
H           3.1645159    -1.7938434    -2.4370100
C           2.0844683    -0.8269680     0.3840756
C           5.6248506     1.4760264     1.1992126
H           6.5124007     2.0563092     1.4365866
C           5.7327605     0.3197041     0.4252931
H           6.7046959    -0.0100940     0.0687026
C           4.5926478    -0.4208611     0.1102461
H           4.6883220    -1.3285405    -0.4784104
C           3.3354756    -0.0155122     0.5792966
C           3.2398773     1.1280358     1.3848555
H           2.2693663     1.4112448     1.7797880
C           4.3756682     1.8789232     1.6784746
H           4.2890476     2.7721756     2.2909406
O           1.3498345    -1.0705941     1.3289480
C          -0.5224173    -3.8470785    -1.5025417
H          -0.7886648    -4.8368681    -1.8445673
N           0.7942007    -3.4026565    -1.5108535
C           0.7246131    -2.1980711    -1.0321472
O          -0.5309616    -1.7903739    -0.7129079
C          -1.3209313    -2.8700158    -1.0059843
H          -2.3729467    -2.7692896    -0.7927775
25
077_C11H10N2O2_5-0-21-20 (-105,) energy =    -685.1217628
N           1.8519349    -1.3421464    -0.8968056
C           2.4565586    -0.8923490    -2.1568736
H           3.0586226    -0.0022958    -1.9784088
H           1.6639166    -0.6375190    -2.8679905
H           3.0859905    -1.6742805    -2.5957749
C           2.1092076    -0.8342885     0.3772659
C           5.6492642     1.4568333     1.2129191
H           6.5383829     2.0335717     1.4531498
C           5.7477640     0.3314930     0.3930351
H           6.7138527     0.0223451     0.0035584
C           4.6056676    -0.4045087     0.0753513
H           4.6914572    -1.2902473    -0.5474146
C           3.3568919    -0.0253570     0.5872167
C           3.2708986     1.0869596     1.4360563
H           2.3064011     1.3478161     1.8599152
C           4.4085296     1.8331597     1.7342581
H           4.3305292     2.7019705     2.3820248
O           1.3459146    -1.0636740     1.3037362
C          -0.4708198    -3.9289420    -1.2809344
H          -0.7417138    -4.9668949    -1.4107862
N           0.8543366    -3.5305579    -1.1589331
C           0.7881161    -2.2446738    -1.0095277
O          -0.4770598    -1.7396286    -1.0400406
C          -1.2744415    -2.8386549    -1.2035675
H          -2.3381793    -2.6644567    -1.2338084
25
077_C11H10N2O2_5-0-21-20 (-90,) energy =    -685.1217781
N           1.8599658    -1.3465361    -0.9318105
C           2.3870573    -0.8059693    -2.1918042
H           2.9933543     0.0755331    -1.9879384
H           1.5556387    -0.5124225    -2.8412664
H           2.9984491    -1.5508804    -2.7133136
C           2.0972535    -0.8246336     0.3440258
C           5.6726790     1.4038813     1.1905096
H           6.5716802     1.9643871     1.4324492
C           5.7467370     0.2985871     0.3409665
H           6.7037288    -0.0110949    -0.0699316
C           4.5920365    -0.4164256     0.0219152
H           4.6565967    -1.2872350    -0.6240339
C           3.3553090    -0.0363167     0.5618419
C           3.2934541     1.0559110     1.4383109
H           2.3375056     1.3172312     1.8808375
C           4.4439003     1.7811613     1.7388667
H           4.3853237     2.6345492     2.4087821
O           1.3170389    -1.0350687     1.2598706
C          -0.4664911    -3.9506968    -1.1501694
H          -0.7544022    -4.9911148    -1.1025278
N           0.8399020    -3.5442445    -0.9110029
C           0.8031727    -2.2561861    -1.0426893
O          -0.4250671    -1.7600813    -1.3732626
C          -1.2290442    -2.8656550    -1.4349923
H          -2.2649910    -2.6978148    -1.6829825
25
077_C11H10N2O2_5-0-21-20 (-75,) energy =    -685.1217654
N           1.8355739    -1.2994844    -0.8545986
C           2.3211656    -0.7142941    -2.1115638
H           2.9030607     0.1806210    -1.8963911
H           1.4702100    -0.4325621    -2.7394863
H           2.9477972    -1.4259354    -2.6612230
C           2.0883396    -0.7810789     0.4246414
C           5.7113128     1.3875906     1.2218730
H           6.6232368     1.9322679     1.4513145
C           5.7504186     0.2950254     0.3536094
H           6.6933759    -0.0204203    -0.0844768
C           4.5791250    -0.3995999     0.0509351
H           4.6158636    -1.2605934    -0.6101266
C           3.3607690    -0.0120163     0.6261206
C           3.3339883     1.0675258     1.5199313
H           2.3918662     1.3343598     1.9880352
C           4.5009056     1.7724892     1.8047809
H           4.4696248     2.6159808     2.4889063
O           1.3149887    -0.9766900     1.3477598
C          -0.4443959    -3.9490519    -0.9339298
H          -0.7405221    -4.9701383    -0.7406452
N           0.8191646    -3.4825158    -0.5956762
C           0.8080908    -2.2394743    -0.9599669
O          -0.3603609    -1.8332889    -1.5388247
C          -1.1532639    -2.9508776    -1.5169372
H          -2.1381393    -2.8537051    -1.9449566
25
077_C11H10N2O2_5-0-21-20 (-60,) energy =    -685.1216851
N           1.8253235    -1.2409273    -0.8657324
C           2.2754754    -0.6075740    -2.1129735
H           2.8879257     0.2604088    -1.8760523
H           1.4114086    -0.2758507    -2.6961651
H           2.8644634    -1.3068273    -2.7171719
C           2.0845817    -0.7239401     0.4191286
C           5.7640664     1.3502955     1.2067076
H           6.6907569     1.8703297     1.4341199
C           5.7686405     0.2702959     0.3218639
H           6.6993777    -0.0599359    -0.1311713
C           4.5786329    -0.3929169     0.0222672
H           4.5872238    -1.2448705    -0.6513822
C           3.3757696     0.0143034     0.6163777
C           3.3833368     1.0809428     1.5259067
H           2.4525287     1.3625423     2.0077850
C           4.5692106     1.7544032     1.8084331
H           4.5648301     2.5880744     2.5051647
O           1.3089001    -0.8957706     1.3427345
C          -0.4174049    -3.9194406    -0.8674657
H          -0.7468406    -4.8998761    -0.5544086
N           0.7761709    -3.3746756    -0.4118955
C           0.8315629    -2.2110958    -0.9797776
O          -0.2224717    -1.9341015    -1.8027131
C          -1.0141423    -3.0536249    -1.7223094
H          -1.9081097    -3.0562317    -2.3247788
25
077_C11H10N2O2_5-0-21-20 (-45,) energy =    -685.1215072
N           1.8136690    -1.1988998    -0.8285815
C           2.2040295    -0.5198581    -2.0720501
H           2.8879925     0.2920366    -1.8347047
H           1.3233953    -0.1033893    -2.5704873
H           2.6989120    -1.2172609    -2.7562216
C           2.0980153    -0.6763524     0.4554142
C           5.8375639     1.3168773     1.1660129
H           6.7801279     1.8158672     1.3745362
C           5.7992079     0.2401253     0.2779257
H           6.7123415    -0.1085704    -0.1965583
C           4.5888147    -0.3961413     0.0029676
H           4.5633692    -1.2451365    -0.6740746
C           3.4082710     0.0349272     0.6247114
C           3.4591426     1.0982429     1.5367932
H           2.5452314     1.3985842     2.0392632
C           4.6653283     1.7446959     1.7952236
H           4.6944171     2.5760657     2.4940914
O           1.3345142    -0.8202041     1.3915215
C          -0.4028678    -3.8941538    -0.7654813
H          -0.7851283    -4.8184419    -0.3560977
N           0.6923031    -3.2526631    -0.2010535
C           0.8507775    -2.1964243    -0.9371070
O          -0.0362668    -2.0840279    -1.9669733
C          -0.8377169    -3.1984878    -1.8427664
H          -1.6090687    -3.3198793    -2.5855581
25
077_C11H10N2O2_5-0-21-20 (-30,) energy =    -685.1211826
N           1.6942027    -1.1958346    -0.8259789
C           2.0847410    -0.4892762    -2.0541161
H           2.7538558     0.3277228    -1.7945874
H           1.2008373    -0.0780048    -2.5507745
H           2.5930256    -1.1648575    -2.7497614
C           2.0042737    -0.7049364     0.4665360
C           5.7729164     1.2415510     1.1595576
H           6.7229509     1.7276022     1.3646579
C           5.7124000     0.1813924     0.2529855
H           6.6157708    -0.1675487    -0.2396654
C           4.4922265    -0.4378677    -0.0175636
H           4.4502473    -1.2733492    -0.7104739
C           3.3239209    -0.0070158     0.6270485
C           3.3973310     1.0391409     1.5572955
H           2.4932136     1.3391106     2.0774113
C           4.6130609     1.6692514     1.8113404
H           4.6592273     2.4877623     2.5243205
O           1.2584569    -0.8601076     1.4136173
C          -0.5265044    -3.8886798    -0.8116236
H          -0.9870429    -4.7591209    -0.3661310
N           0.4483114    -3.1647568    -0.1363168
C           0.7541629    -2.2099130    -0.9605982
O           0.0741495    -2.2379996    -2.1422896
C          -0.7509498    -3.3396180    -2.0279241
H          -1.3776193    -3.5577867    -2.8768512
25
077_C11H10N2O2_5-0-21-20 (-15,) energy =    -685.1206180
N           1.6168631    -1.1599381    -0.7973995
C           2.0158660    -0.4550405    -2.0241133
H           2.6480325     0.3880109    -1.7562861
H           1.1289530    -0.0818915    -2.5443611
H           2.5628592    -1.1170045    -2.7030862
C           1.9732421    -0.6994746     0.4935583
C           5.7638266     1.2319531     1.1139589
H           6.7198435     1.7131464     1.3019577
C           5.6787056     0.1829047     0.1966081
H           6.5689402    -0.1624330    -0.3218383
C           4.4505768    -0.4298497    -0.0521254
H           4.3910227    -1.2561971    -0.7546643
C           3.2989298    -0.0041979     0.6250464
C           3.3978976     1.0303002     1.5659877
H           2.5076660     1.3257504     2.1120096
C           4.6209723     1.6546014     1.7982029
H           4.6862563     2.4643903     2.5195983
O           1.2632382    -0.8747205     1.4639115
C          -0.6407948    -3.8246168    -0.8019763
H          -1.1887215    -4.6307356    -0.3347930
N           0.2201649    -3.0200305    -0.0645089
C           0.6862705    -2.1816578    -0.9398053
O           0.2090239    -2.3548122    -2.2061235
C          -0.6520358    -3.4306101    -2.0957178
H          -1.1427700    -3.7441984    -3.0021795
25
077_C11H10N2O2_5-0-21-20 (0,) energy =    -685.1199252
N           1.6123453    -1.1541309    -0.7527550
C           2.0192463    -0.4466786    -1.9763039
H           2.5994815     0.4302900    -1.7000785
H           1.1303687    -0.1254689    -2.5259955
H           2.6182910    -1.0863777    -2.6322244
C           2.0243325    -0.7469597     0.5367644
C           5.7854228     1.2671150     1.0818981
H           6.7346748     1.7677867     1.2524456
C           5.7011939     0.2268347     0.1546906
H           6.5859449    -0.0925525    -0.3891873
C           4.4811202    -0.4103557    -0.0719240
H           4.4241663    -1.2290243    -0.7836588
C           3.3370011    -0.0190548     0.6377485
C           3.4363815     1.0059328     1.5889570
H           2.5542334     1.2741911     2.1615513
C           4.6503648     1.6557590     1.7983781
H           4.7148740     2.4585234     2.5276568
O           1.3730334    -0.9875494     1.5340908
C          -0.7282037    -3.7511757    -0.7960446
H          -1.3743622    -4.4833045    -0.3325986
N           0.0406713    -2.8838358    -0.0270618
C           0.6738413    -2.1686393    -0.9070004
O           0.3845112    -2.4757206    -2.2059180
C          -0.5296906    -3.5076241    -2.1110261
H          -0.8991777    -3.9046761    -3.0420262
25
077_C11H10N2O2_5-0-21-20 (15,) energy =    -685.1193327
N           1.6238091    -1.1747048    -0.7465701
C           2.0382538    -0.4600270    -1.9642985
H           2.5783269     0.4402413    -1.6807274
H           1.1505888    -0.1756929    -2.5352395
H           2.6758379    -1.0792408    -2.6032425
C           2.0862135    -0.8359340     0.5422116
C           5.7685334     1.3272908     1.0656740
H           6.6985514     1.8642030     1.2318096
C           5.7125263     0.3037359     0.1181609
H           6.6006359     0.0333256    -0.4464389
C           4.5165486    -0.3797110    -0.1031095
H           4.4833902    -1.1845806    -0.8319223
C           3.3688761    -0.0522329     0.6323848
C           3.4414572     0.9553365     1.6044254
H           2.5595426     1.1736340     2.1982749
C           4.6302030     1.6521681     1.8081176
H           4.6728074     2.4413635     2.5536530
O           1.5005616    -1.1714456     1.5532436
C          -0.8632167    -3.6354447    -0.8394277
H          -1.6216813    -4.2674840    -0.3995781
N          -0.1557065    -2.7188172    -0.0679741
C           0.6526818    -2.1579444    -0.9148016
O           0.5339265    -2.6108544    -2.1995308
C          -0.4576562    -3.5677899    -2.1275555
H          -0.7221223    -4.0523517    -3.0530206
25
077_C11H10N2O2_5-0-21-20 (30,) energy =    -685.1189953
N           1.6347786    -1.2001837    -0.7477296
C           2.0400645    -0.4725119    -1.9610956
H           2.5519469     0.4442409    -1.6756145
H           1.1475404    -0.2131103    -2.5363247
H           2.6998928    -1.0715491    -2.5969759
C           2.1421870    -0.9282874     0.5371755
C           5.7429869     1.3691248     1.0630124
H           6.6530380     1.9392393     1.2291255
C           5.7098518     0.3762459     0.0824645
H           6.5963904     0.1627267    -0.5083977
C           4.5390002    -0.3495195    -0.1390494
H           4.5248871    -1.1301683    -0.8943227
C           3.3941677    -0.0957989     0.6291455
C           3.4453453     0.8802860     1.6341715
H           2.5683538     1.0415073     2.2530664
C           4.6079590     1.6199560     1.8383078
H           4.6329603     2.3846739     2.6097180
O           1.6153088    -1.3540869     1.5472740
C          -1.0099442    -3.4906194    -0.8605453
H          -1.8716516    -3.9992283    -0.4521064
N          -0.3338131    -2.5197582    -0.1288670
C           0.6250989    -2.1452196    -0.9176289
O           0.6386509    -2.7735532    -2.1327374
C          -0.4328599    -3.6375821    -2.0754957
H          -0.6165902    -4.2321490    -2.9554391
25
077_C11H10N2O2_5-0-21-20 (45,) energy =    -685.1189410
N           1.6475784    -1.2142349    -0.7789670
C           2.0330169    -0.4545203    -1.9783076
H           2.5620103     0.4493996    -1.6815025
H           1.1293354    -0.1671981    -2.5232626
H           2.6715160    -1.0424567    -2.6461261
C           2.1767187    -1.0082966     0.5059284
C           5.7005036     1.3872712     1.1090299
H           6.5914730     1.9813230     1.2936735
C           5.6941972     0.4364537     0.0872681
H           6.5828258     0.2793568    -0.5180002
C           4.5472416    -0.3195998    -0.1576858
H           4.5547335    -1.0671004    -0.9459662
C           3.4004229    -0.1389394     0.6277884
C           3.4254660     0.7945810     1.6732959
H           2.5482324     0.8990588     2.3039471
C           4.5634074     1.5651288     1.9012832
H           4.5678460     2.2968001     2.7044925
O           1.6866421    -1.5198193     1.4957344
C          -1.1328433    -3.3356373    -0.9303672
H          -2.0808952    -3.7172795    -0.5791036
N          -0.4794033    -2.3031867    -0.2673291
C           0.6049532    -2.1239343    -0.9531030
O           0.7274746    -2.9435408    -2.0420584
C          -0.4099905    -3.7139970    -2.0115234
H          -0.5272127    -4.4317351    -2.8072501
25
077_C11H10N2O2_5-0-21-20 (60,) energy =    -685.1192791
N           1.6583986    -1.2412341    -0.8329025
C           1.9820788    -0.4259588    -2.0134074
H           2.5459417     0.4544324    -1.7090825
H           1.0517443    -0.0961831    -2.4863415
H           2.5688991    -0.9922067    -2.7451858
C           2.1688437    -1.0450390     0.4577398
C           5.6510720     1.3876804     1.1370330
H           6.5321636     1.9907587     1.3390597
C           5.6516987     0.4854110     0.0721241
H           6.5359801     0.3750694    -0.5496050
C           4.5174370    -0.2823076    -0.1949955
H           4.5295858    -0.9935654    -1.0160719
C           3.3770871    -0.1614053     0.6110855
C           3.3955453     0.7229146     1.6986646
H           2.5235022     0.7797781     2.3423616
C           4.5204231     1.5051905     1.9497021
H           4.5201563     2.1987586     2.7860513
O           1.6758432    -1.5916150     1.4288136
C          -1.2215163    -3.2258580    -1.0034347
H          -2.2398841    -3.4774084    -0.7438062
N          -0.5939523    -2.1044257    -0.4767313
C           0.5931996    -2.1311097    -0.9931528
O           0.8143893    -3.1801094    -1.8422880
C          -0.3699568    -3.8697618    -1.8394787
H          -0.4206149    -4.7463193    -2.4652843
25
077_C11H10N2O2_5-0-21-20 (75,) energy =    -685.1203533
N           1.7560374    -1.2658146    -0.9388257
C           1.9455070    -0.3232541    -2.0541893
H           2.5966079     0.4918577    -1.7430176
H           0.9769921     0.0941936    -2.3490434
H           2.3945170    -0.8285314    -2.9162468
C           2.2124179    -1.0597450     0.3710171
C           5.6696091     1.3732172     1.1534938
H           6.5445648     1.9767945     1.3793838
C           5.6725515     0.5261015     0.0439258
H           6.5531065     0.4592084    -0.5891436
C           4.5461715    -0.2420839    -0.2524973
H           4.5583214    -0.9124168    -1.1073033
C           3.4113891    -0.1763551     0.5681637
C           3.4268923     0.6527543     1.6981426
H           2.5584080     0.6665911     2.3489262
C           4.5445374     1.4349523     1.9799310
H           4.5429312     2.0854606     2.8501642
O           1.6896979    -1.6245492     1.3173480
C          -1.2072266    -3.1238192    -1.1364921
H          -2.2723909    -3.2584357    -1.0137959
N          -0.5821056    -1.9277337    -0.8128549
C           0.6673250    -2.1365609    -1.0830260
O           0.9376435    -3.3840022    -1.5638842
C          -0.2811275    -4.0055435    -1.5905871
H          -0.2981543    -5.0231674    -1.9467523
25
077_C11H10N2O2_5-0-21-20 (90,) energy =    -685.1221422
N           1.7795384    -1.2925687    -0.9924458
C           1.8787591    -0.2688897    -2.0485323
H           2.5439825     0.5296789    -1.7250807
H           0.8883692     0.1529016    -2.2472117
H           2.2731382    -0.7097445    -2.9700544
C           2.2081851    -1.0889898     0.3301694
C           5.6738296     1.3095994     1.1656591
H           6.5513861     1.9050578     1.4027216
C           5.6600631     0.5117426     0.0200263
H           6.5299488     0.4751567    -0.6300119
C           4.5307770    -0.2460336    -0.2906317
H           4.5285045    -0.8792088    -1.1732236
C           3.4101454    -0.2190560     0.5515873
C           3.4419241     0.5612102     1.7155528
H           2.5830232     0.5455688     2.3788321
C           4.5627753     1.3328443     2.0128456
H           4.5745584     1.9454205     2.9100959
O           1.6585729    -1.6551026     1.2613055
C          -1.1830407    -3.1386181    -1.2803243
H          -2.2585576    -3.2379221    -1.3138114
N          -0.5692943    -1.9024825    -1.1298976
C           0.6980290    -2.1737954    -1.1365920
O           0.9904982    -3.4948681    -1.2707537
C          -0.2327831    -4.1039908    -1.3547087
H          -0.2326822    -5.1770128    -1.4597832
25
077_C11H10N2O2_5-0-21-20 (105,) energy =    -685.1239214
N           1.7612102    -1.2622601    -0.9858323
C           1.8281551    -0.2131344    -2.0192917
H           2.4642046     0.5995162    -1.6733362
H           0.8240959     0.1757432    -2.2122978
H           2.2405040    -0.6195339    -2.9486382
C           2.1953559    -1.0673768     0.3384864
C           5.7056188     1.2712333     1.1529637
H           6.5946988     1.8518398     1.3838770
C           5.6551231     0.5059810    -0.0137692
H           6.5078554     0.4799245    -0.6866235
C           4.5113145    -0.2328417    -0.3161759
H           4.4806663    -0.8412467    -1.2153663
C           3.4124642    -0.2192025     0.5547778
C           3.4808812     0.5289239     1.7382786
H           2.6379335     0.5032962     2.4213563
C           4.6165272     1.2811433     2.0285656
H           4.6569578     1.8685278     2.9416757
O           1.6341374    -1.6205195     1.2706464
C          -1.1416816    -3.1636734    -1.4405893
H          -2.1982573    -3.2792036    -1.6353519
N          -0.5421829    -1.9111460    -1.3908182
C           0.7048364    -2.1677957    -1.1434365
O           0.9961203    -3.4874589    -1.0182555
C          -0.2080588    -4.1167856    -1.1992276
H          -0.2070071    -5.1920249    -1.1221224
25
077_C11H10N2O2_5-0-21-20 (120,) energy =    -685.1252660
N           1.7230994    -1.2219857    -0.9510822
C           1.7746139    -0.1600357    -1.9722040
H           2.3770233     0.6677693    -1.6032050
H           0.7617130     0.1948489    -2.1798325
H           2.2156309    -0.5414545    -2.8988719
C           2.1731231    -1.0317473     0.3714664
C           5.7360863     1.2456311     1.1253455
H           6.6391628     1.8103366     1.3408606
C           5.6452598     0.4958769    -0.0490699
H           6.4804584     0.4661375    -0.7433825
C           4.4837678    -0.2228030    -0.3313650
H           4.4211657    -0.8188628    -1.2370603
C           3.4073003    -0.2040511     0.5670653
C           3.5159643     0.5288357     1.7571844
H           2.6895272     0.5072309     2.4602694
C           4.6694024     1.2607495     2.0280781
H           4.7411534     1.8364534     2.9466670
O           1.6106675    -1.5643933     1.3139236
C          -1.0689285    -3.2146985    -1.6220968
H          -2.0758839    -3.3722550    -1.9809998
N          -0.4819618    -1.9543576    -1.6304654
C           0.7013150    -2.1561850    -1.1353166
O           0.9624047    -3.4429654    -0.7994285
C          -0.1965595    -4.1128166    -1.1042170
H          -0.2129879    -5.1684820    -0.8872820
25
077_C11H10N2O2_5-0-21-20 (135,) energy =    -685.1260557
N           1.6925536    -1.1777419    -0.9069667
C           1.7209086    -0.0996863    -1.9108638
H           2.3700497     0.6997444    -1.5601877
H           0.7106103     0.2902004    -2.0615872
H           2.0947431    -0.4806499    -2.8660630
C           2.1668687    -0.9982477     0.4111407
C           5.7873143     1.2096896     1.0961495
H           6.7052628     1.7565399     1.2941597
C           5.6557241     0.4695056    -0.0805114
H           6.4739917     0.4292836    -0.7941658
C           4.4751461    -0.2261159    -0.3402846
H           4.3806688    -0.8154635    -1.2476133
C           3.4199601    -0.1935287     0.5827842
C           3.5695103     0.5294033     1.7746368
H           2.7589783     0.5186133     2.4962259
C           4.7422160     1.2380826     2.0234839
H           4.8457587     1.8062045     2.9437523
O           1.6112290    -1.5150306     1.3654257
C          -0.9453377    -3.2758358    -1.8066193
H          -1.8722664    -3.4881439    -2.3196991
N          -0.3640610    -2.0121936    -1.8465747
C           0.7108294    -2.1407108    -1.1267522
O           0.9078947    -3.3797496    -0.6168920
C          -0.1801549    -4.0991071    -1.0517044
H          -0.2371063    -5.1251369    -0.7268031
25
077_C11H10N2O2_5-0-21-20 (150,) energy =    -685.1262640
N           1.8337044    -1.2351928    -0.8798708
C           2.5681194    -0.9582199    -2.1260180
H           3.2878363    -0.1628175    -1.9463651
H           1.8652489    -0.6483358    -2.9037128
H           3.0892174    -1.8564416    -2.4702921
C           1.9243046    -0.4045017     0.2586945
C           5.7066842     1.3131227     1.3554630
H           6.6532886     1.7516411     1.6596039
C           5.6823272     0.0539607     0.7525306
H           6.6072258    -0.4945126     0.5969189
C           4.4691028    -0.5066611     0.3538383
H           4.4511008    -1.4930023    -0.1004335
C           3.2684493     0.1861843     0.5656715
C           3.2981631     1.4377745     1.1967084
H           2.3595664     1.9483868     1.3867165
C           4.5123004     2.0039951     1.5770215
H           4.5279293     2.9801475     2.0537422
O           0.9682431    -0.2051418     0.9876060
C          -0.7566019    -3.3714660    -1.8004617
H          -1.3736576    -3.8672531    -2.5360504
N           0.2273014    -2.4604974    -2.1722859
C           0.7396097    -2.0775713    -1.0377099
O           0.1980740    -2.6589686     0.0559497
C          -0.7799342    -3.4861031    -0.4524732
H          -1.3627390    -4.0334682     0.2699641
25
077_C11H10N2O2_5-0-21-20 (165,) energy =    -685.1259110
N           1.7697398    -1.1861987    -0.8858823
C           2.5299785    -0.9244473    -2.1189512
H           3.2069675    -0.0905251    -1.9490329
H           1.8348652    -0.6755211    -2.9245093
H           3.0982128    -1.8094657    -2.4203590
C           1.8986747    -0.4017201     0.2789791
C           5.7055258     1.2963659     1.3256427
H           6.6581178     1.7289673     1.6193526
C           5.6677435     0.0442990     0.7089949
H           6.5883676    -0.5049407     0.5321834
C           4.4466120    -0.5083198     0.3232030
H           4.4200989    -1.4890550    -0.1426989
C           3.2513507     0.1846941     0.5624418
C           3.2950236     1.4284930     1.2079227
H           2.3611573     1.9387733     1.4208415
C           4.5167409     1.9875941     1.5743251
H           4.5426018     2.9581582     2.0618972
O           0.9696527    -0.2270396     1.0479813
C          -0.6450165    -3.5078137    -1.8169145
H          -1.1503578    -4.1157631    -2.5535971
N           0.3659000    -2.6227815    -2.1781545
C           0.7153723    -2.0751566    -1.0475545
O           0.0417105    -2.5233829     0.0339499
C          -0.8435343    -3.4483307    -0.4803849
H          -1.5043372    -3.9180994     0.2293607
25
077_C11H10N2O2_5-0-21-20 (180,) energy =    -685.1251109
N           1.7321768    -1.1237258    -0.8629282
C           2.5190842    -0.8783966    -2.0822818
H           3.1546321    -0.0099001    -1.9260934
H           1.8349348    -0.6890884    -2.9124230
H           3.1311749    -1.7478639    -2.3400531
C           1.9155213    -0.4101689     0.3368365
C           5.7355696     1.3141606     1.2953843
H           6.6917444     1.7520995     1.5687952
C           5.6925131     0.0681586     0.6671530
H           6.6127630    -0.4714204     0.4610256
C           4.4665864    -0.4909525     0.3063872
H           4.4382453    -1.4666563    -0.1698656
C           3.2719125     0.1886525     0.5832960
C           3.3217073     1.4253853     1.2417365
H           2.3897747     1.9248728     1.4865395
C           4.5476724     1.9920579     1.5817435
H           4.5774905     2.9576760     2.0788334
O           1.0280117    -0.2900926     1.1634511
C          -0.5625077    -3.5604569    -1.8005914
H          -0.9729290    -4.2555973    -2.5189696
N           0.5008705    -2.7251728    -2.1260911
C           0.7054705    -2.0439080    -1.0321518
O          -0.1155733    -2.3553852    -0.0065660
C          -0.9344994    -3.3412541    -0.5191045
H          -1.6859696    -3.7272456     0.1497153
