24
278_C8H12N2O2_13-0-1-2 (-165,) energy =    -572.0104040
C           2.8155899    -0.8785237    -0.3553846
N           1.4521966    -0.7091098    -0.4393335
C           0.5961871    -1.8556561    -0.1819487
H           0.1613714    -2.2496469    -1.1121283
H          -0.2252861    -1.5601054     0.4828968
H           1.1895973    -2.6410647     0.2842375
C           0.7810524     0.4771317    -0.9433638
H           0.1772525     0.9615498    -0.1673745
H           0.1211695     0.1934868    -1.7754897
H           1.5127402     1.1955354    -1.3108226
C           3.5111601     1.5380493     0.4037691
O           2.3668372     1.9080386     1.0566443
H           2.5516225     2.7255982     1.5422917
C           3.6630492     0.3298059    -0.2804813
N           4.9769820     0.3119567    -0.7517061
C           5.6003666    -0.7562374    -1.5222177
H           6.6054119    -0.4295410    -1.7998268
H           5.0285350    -0.9592803    -2.4326625
H           5.6454103    -1.6735977    -0.9349878
C           5.5985939     1.4681117    -0.3984975
H           6.6205669     1.6559034    -0.6969778
C           4.7246379     2.2588792     0.3276086
H           4.9356954     3.2329504     0.7494711
O           3.3210710    -2.0059902    -0.2895532
24
278_C8H12N2O2_13-0-1-2 (-150,) energy =    -572.0082343
C           2.8292682    -0.9064084    -0.4515157
N           1.4628752    -0.7482844    -0.5527292
C           0.5963182    -1.8005777    -0.0486359
H          -0.0469955    -2.2041368    -0.8429542
H          -0.0497188    -1.4038845     0.7469198
H           1.2158754    -2.6074696     0.3414139
C           0.7915126     0.4454461    -1.0350799
H           0.2613478     0.9724099    -0.2330362
H           0.0649697     0.1603086    -1.8087160
H           1.5177002     1.1283281    -1.4766781
C           3.4723979     1.4864677     0.4132003
O           2.3065738     1.8197457     1.0467122
H           2.4662019     2.6257123     1.5599103
C           3.6606103     0.3049272    -0.3086355
N           4.9884536     0.3203525    -0.7400803
C           5.6464657    -0.7142784    -1.5272579
H           6.6551275    -0.3678648    -1.7648771
H           5.1029146    -0.8926544    -2.4599092
H           5.6852934    -1.6503163    -0.9695874
C           5.5850669     1.4681911    -0.3242962
H           6.6142606     1.6773963    -0.5809468
C           4.6792176     2.2218932     0.4025758
H           4.8657483     3.1810350     0.8679669
O           3.3416158    -2.0306433    -0.3923363
24
278_C8H12N2O2_13-0-1-2 (-135,) energy =    -572.0041669
C           2.8468279    -0.9234609    -0.5653788
N           1.4718589    -0.7837090    -0.6734651
C           0.6195000    -1.7115395     0.0532797
H          -0.1838707    -2.0959377    -0.5890676
H           0.1589888    -1.2086461     0.9166012
H           1.2243727    -2.5522922     0.3932458
C           0.8099484     0.4174364    -1.1539799
H           0.3514987     0.9959582    -0.3429821
H           0.0260884     0.1297700    -1.8679560
H           1.5291180     1.0552528    -1.6704838
C           3.4324797     1.4347314     0.4171523
O           2.2474775     1.7223658     1.0360432
H           2.3791940     2.5128891     1.5803301
C           3.6587652     0.2873477    -0.3491154
N           4.9986491     0.3402940    -0.7405415
C           5.6926659    -0.6502222    -1.5532620
H           6.7043125    -0.2836116    -1.7428708
H           5.1800975    -0.7905003    -2.5096909
H           5.7243700    -1.6104233    -1.0378008
C           5.5656178     1.4760354    -0.2579233
H           6.5988743     1.7102028    -0.4736840
C           4.6280962     2.1852328     0.4742977
H           4.7877810     3.1244179     0.9878582
O           3.3688948    -2.0429551    -0.5367235
24
278_C8H12N2O2_13-0-1-2 (-120,) energy =    -571.9989950
C           2.8583190    -0.9468031    -0.6685035
N           1.4700757    -0.8293977    -0.7723059
C           0.6589066    -1.6006649     0.1601266
H          -0.2633758    -1.9454136    -0.3242892
H           0.3851040    -0.9910470     1.0348452
H           1.2257391    -2.4748028     0.4837169
C           0.8324804     0.3771739    -1.2801700
H           0.4619797     1.0329635    -0.4826706
H          -0.0131608     0.0864700    -1.9177474
H           1.5418363     0.9397633    -1.8907685
C           3.3924180     1.3709807     0.4238449
O           2.1919478     1.6121406     1.0322131
H           2.2969603     2.3855272     1.6062246
C           3.6524920     0.2594359    -0.3847429
N           5.0006158     0.3476316    -0.7418806
C           5.7256841    -0.5961413    -1.5827229
H           6.7365638    -0.2093660    -1.7319472
H           5.2365965    -0.6985439    -2.5560888
H           5.7583795    -1.5784924    -1.1109251
C           5.5390602     1.4697700    -0.1997457
H           6.5735186     1.7273519    -0.3804258
C           4.5748479     2.1342229     0.5405843
H           4.7101221     3.0512931     1.0991172
O           3.3932186    -2.0579242    -0.6913941
24
278_C8H12N2O2_13-0-1-2 (-105,) energy =    -571.9936427
C           2.8467189    -0.9575599    -0.7531597
N           1.4401620    -0.8623200    -0.8174176
C           0.7018491    -1.4657536     0.2876607
H          -0.3009505    -1.7570442    -0.0483982
H           0.5989023    -0.7697784     1.1342103
H           1.2248744    -2.3661740     0.6175292
C           0.8182424     0.3415958    -1.3597662
H           0.5764882     1.0931209    -0.5972010
H          -0.1090343     0.0516848    -1.8710495
H           1.4811330     0.7955948    -2.1007285
C           3.3554270     1.3155877     0.4466213
O           2.1461334     1.5345251     1.0447277
H           2.2376978     2.2940468     1.6393293
C           3.6339501     0.2293410    -0.3923775
N           4.9885812     0.3389544    -0.7264017
C           5.7362725    -0.5655949    -1.5911193
H           6.7359020    -0.1473995    -1.7319391
H           5.2475373    -0.6578636    -2.5650435
H           5.7978733    -1.5586592    -1.1454408
C           5.5102569     1.4453408    -0.1399368
H           6.5459746     1.7150537    -0.2942707
C           4.5306898     2.0797258     0.6071686
H           4.6522404     2.9780007     1.1983457
O           3.3926241    -2.0523487    -0.8861077
24
278_C8H12N2O2_13-0-1-2 (-90,) energy =    -571.9977450
C           2.5802919    -0.3728325    -0.9944293
N           1.2500390    -0.1276767    -0.5282614
C           0.8641315    -1.0150348     0.5763364
H           0.7863153    -2.0672289     0.2550598
H          -0.1063812    -0.6963529     0.9705429
H           1.5961658    -0.9435068     1.3855793
C           0.2695809    -0.2269673    -1.6162112
H          -0.6959095     0.1203195    -1.2332602
H           0.1532063    -1.2494518    -2.0049451
H           0.5717237     0.4202914    -2.4431277
C           3.5441860     1.3604713     0.7007714
O           2.3988151     1.7386359     1.3302240
H           2.6263500     2.4428542     1.9570703
C           3.6123076     0.4016135    -0.3238224
N           4.9695840     0.2884496    -0.6617669
C           5.5493179    -0.5783982    -1.6812918
H           6.6321535    -0.4293650    -1.6650466
H           5.1548687    -0.3367754    -2.6692901
H           5.3211175    -1.6260417    -1.4754384
C           5.6902788     1.1468425     0.0996013
H           6.7624123     1.2216216    -0.0204948
C           4.8473008     1.8325915     0.9605883
H           5.1406747     2.5774632     1.6888173
O           2.8047881    -1.0618281    -1.9891171
24
278_C8H12N2O2_13-0-1-2 (-75,) energy =    -572.0028914
C           2.5722908    -0.2763163    -1.0961493
N           1.2572362    -0.1342708    -0.5981014
C           0.9471667    -0.9129145     0.6057053
H           0.8374254    -1.9856038     0.3763938
H           0.0097394    -0.5519289     1.0412005
H           1.7348534    -0.7870306     1.3506369
C           0.2340866    -0.3361499    -1.6264714
H          -0.7270067    -0.0053105    -1.2188819
H           0.1442229    -1.3864384    -1.9419599
H           0.4742683     0.2620013    -2.5072085
C           3.5426583     1.3404291     0.7169418
O           2.3870637     1.7331241     1.3239916
H           2.6091436     2.4317175     1.9585322
C           3.6102234     0.4170259    -0.3363522
N           4.9691340     0.2852417    -0.6518372
C           5.5501757    -0.5655134    -1.6841266
H           6.6374122    -0.4785752    -1.6116210
H           5.2140660    -0.2606451    -2.6758047
H           5.2589215    -1.6076196    -1.5355719
C           5.6956818     1.0942290     0.1587439
H           6.7722758     1.1387005     0.0683845
C           4.8507452     1.7705020     1.0242236
H           5.1444983     2.4817503     1.7852094
O           2.7981424    -0.7984112    -2.1894972
24
278_C8H12N2O2_13-0-1-2 (-60,) energy =    -572.0069970
C           2.5718908    -0.1755026    -1.1633742
N           1.2750938    -0.1753761    -0.6410082
C           1.0242583    -0.8576786     0.6287145
H           0.8545795    -1.9348240     0.4697583
H           0.1374497    -0.4333188     1.1109918
H           1.8704577    -0.7299879     1.3030046
C           0.2294722    -0.4338530    -1.6278173
H          -0.7327837    -0.1416218    -1.1942966
H           0.1783100    -1.4933407    -1.9211960
H           0.4180071     0.1561667    -2.5253287
C           3.5454953     1.3335406     0.7454497
O           2.3829660     1.7472157     1.3297263
H           2.6041432     2.4353652     1.9754387
C           3.6114617     0.4377452    -0.3286424
N           4.9702269     0.2859442    -0.6260491
C           5.5452462    -0.5467647    -1.6758523
H           6.6322119    -0.5199449    -1.5640479
H           5.2571237    -0.1828585    -2.6625924
H           5.1989884    -1.5787641    -1.5821451
C           5.7028772     1.0495126     0.2241019
H           6.7820362     1.0633339     0.1590268
C           4.8578754     1.7214264     1.0921003
H           5.1531196     2.4024810     1.8796831
O           2.7990469    -0.5307445    -2.3233837
24
278_C8H12N2O2_13-0-1-2 (-45,) energy =    -572.0094705
C           2.5524198    -0.0970046    -1.2119577
N           1.2805103    -0.2380563    -0.6794190
C           1.0526908    -0.8049260     0.6454990
H           0.7769254    -1.8677525     0.5623344
H           0.2425954    -0.2741890     1.1573583
H           1.9520718    -0.7250174     1.2535522
C           0.2165866    -0.5251445    -1.6331582
H          -0.7390536    -0.2144609    -1.1970603
H           0.1580172    -1.5963614    -1.8792686
H           0.3966685     0.0256120    -2.5561313
C           3.5374244     1.3335572     0.7545112
O           2.3740829     1.7693935     1.3247132
H           2.5983007     2.4553930     1.9712774
C           3.5956126     0.4513507    -0.3290521
N           4.9516952     0.2828996    -0.6217640
C           5.5139000    -0.5436690    -1.6828226
H           6.6001785    -0.5492188    -1.5628791
H           5.2413510    -0.1522427    -2.6633214
H           5.1405498    -1.5684605    -1.6107100
C           5.6936225     1.0148040     0.2493763
H           6.7734648     1.0015503     0.1976669
C           4.8545256     1.6887854     1.1209065
H           5.1557576     2.3498112     1.9231442
O           2.7760992    -0.3152530    -2.4075615
24
278_C8H12N2O2_13-0-1-2 (-30,) energy =    -572.0105049
C           2.5376386    -0.0740386    -1.2364198
N           1.3007205    -0.3483486    -0.6930475
C           1.0822581    -0.7902738     0.6761868
H           0.6924253    -1.8188679     0.6733279
H           0.3617674    -0.1456842     1.1921890
H           2.0178947    -0.7764120     1.2325154
C           0.2101076    -0.6300148    -1.6139968
H          -0.7257800    -0.2433764    -1.1940993
H           0.0926321    -1.7104062    -1.7867429
H           0.4154158    -0.1494424    -2.5696943
C           3.5597879     1.2939593     0.7586804
O           2.4057522     1.7529907     1.3322979
H           2.6450396     2.4264123     1.9863393
C           3.5948738     0.4228752    -0.3332830
N           4.9445442     0.2384260    -0.6406406
C           5.4801507    -0.5852413    -1.7171601
H           6.5691153    -0.5903917    -1.6267365
H           5.1793194    -0.1901137    -2.6876312
H           5.1112421    -1.6117776    -1.6366375
C           5.7066977     0.9425286     0.2370235
H           6.7857232     0.9054367     0.1807700
C           4.8857977     1.6192997     1.1230183
H           5.2037446     2.2638874     1.9321571
O           2.7429141    -0.1805603    -2.4515817
24
278_C8H12N2O2_13-0-1-2 (-15,) energy =    -572.0104692
C           2.5225887    -0.0587758    -1.2696240
N           1.3237930    -0.4653928    -0.7313713
C           1.0853057    -0.7801624     0.6670776
H           0.6158550    -1.7711046     0.7360768
H           0.4239782    -0.0462564     1.1421839
H           2.0263365    -0.8041277     1.2146119
C           0.2154688    -0.7346312    -1.6335646
H          -0.6890701    -0.2249362    -1.2776140
H           0.0039470    -1.8121352    -1.6881604
H           0.4777563    -0.3761811    -2.6278284
C           3.5690282     1.2632159     0.7484682
O           2.4231280     1.7406152     1.3256775
H           2.6749000     2.4025076     1.9865864
C           3.5873983     0.4025911    -0.3510429
N           4.9324855     0.2079198    -0.6695359
C           5.4489579    -0.6148707    -1.7556328
H           6.5397559    -0.6098208    -1.6936279
H           5.1189184    -0.2237928    -2.7181325
H           5.0929548    -1.6454826    -1.6619257
C           5.7089005     0.8896078     0.2141136
H           6.7869662     0.8351377     0.1542471
C           4.9011893     1.5660470     1.1117157
H           5.2307248     2.1976215     1.9264678
O           2.7160177    -0.0710854    -2.4918912
24
278_C8H12N2O2_13-0-1-2 (0,) energy =    -572.0095401
C           2.5090033     0.0188023    -1.2707246
N           1.3542040    -0.5266783    -0.7583093
C           1.0653429    -0.7336968     0.6505493
H           0.5568754    -1.6993140     0.7670445
H           0.4198582     0.0534537     1.0583411
H           1.9898685    -0.7571605     1.2257738
C           0.2507788    -0.7920253    -1.6694701
H          -0.6200768    -0.1718403    -1.4150941
H          -0.0489982    -1.8463211    -1.6061266
H           0.5773252    -0.5677050    -2.6835940
C           3.5686241     1.2809961     0.7850053
O           2.4281552     1.7615256     1.3724201
H           2.6884645     2.4034951     2.0493622
C           3.5761283     0.4450619    -0.3322610
N           4.9179855     0.2488290    -0.6611617
C           5.4213701    -0.5551713    -1.7666166
H           6.5125739    -0.5585609    -1.7134083
H           5.0872869    -0.1418437    -2.7185939
H           5.0601115    -1.5856961    -1.6905843
C           5.7040605     0.9011641     0.2372119
H           6.7812934     0.8364796     0.1734201
C           4.9048812     1.5631637     1.1521661
H           5.2416770     2.1739894     1.9796966
O           2.6936574     0.1038666    -2.4910862
24
278_C8H12N2O2_13-0-1-2 (15,) energy =    -572.0104529
C           2.6959755    -0.6981866    -0.7535839
N           1.3452158    -0.4767111    -0.5327149
C           0.7627470     0.7265376     0.0459010
H           0.2361427     0.5169102     0.9867133
H           0.0304208     1.1484440    -0.6558550
H           1.5338871     1.4729094     0.2290708
C           0.3930226    -1.4265116    -1.0919965
H          -0.1138875    -1.0025087    -1.9702596
H          -0.3689836    -1.6784052    -0.3440071
H           0.9297851    -2.3238214    -1.3960359
C           3.7339679     0.6173430     1.2507853
O           2.8293745     0.3982771     2.2525931
H           2.2142789    -0.2925475     1.9607783
C           3.6572611     0.1977104    -0.0806196
N           4.8594404     0.5712433    -0.6813319
C           5.2113809     0.3808831    -2.0811841
H           6.2594631     0.6600820    -2.2110941
H           4.5945366     1.0111352    -2.7327758
H           5.0635149    -0.6627586    -2.3587686
C           5.6146588     1.2510198     0.2263898
H           6.5717463     1.6638615    -0.0611609
C           4.9579062     1.2933175     1.4430292
H           5.3157552     1.7276750     2.3650391
O           3.0755603    -1.6067296    -1.4992750
24
278_C8H12N2O2_13-0-1-2 (30,) energy =    -572.0123939
C           2.6928249    -0.6560027    -0.7820324
N           1.3553504    -0.4981374    -0.4224031
C           0.7681449     0.7623674     0.0268237
H           0.1629743     0.6201378     0.9306929
H           0.1098735     1.1661879    -0.7562619
H           1.5465598     1.4948125     0.2324586
C           0.4017488    -1.4522895    -0.9750146
H          -0.0186085    -1.0951668    -1.9264588
H          -0.4202309    -1.5961892    -0.2649540
H           0.9070163    -2.3998398    -1.1577933
C           3.7446602     0.5934293     1.2359531
O           2.8302707     0.3497693     2.2189458
H           2.1859011    -0.2894146     1.8710953
C           3.6668242     0.2152447    -0.1091728
N           4.8732454     0.5942208    -0.6978649
C           5.2247411     0.4388076    -2.1022907
H           6.2764573     0.7079461    -2.2235399
H           4.6163071     1.0948665    -2.7359468
H           5.0627056    -0.5943725    -2.4095706
C           5.6344337     1.2339406     0.2322514
H           6.5968164     1.6451155    -0.0399031
C           4.9764413     1.2464780     1.4503360
H           5.3386611     1.6508381     2.3841633
O           3.0295535    -1.5144537    -1.6017292
24
278_C8H12N2O2_13-0-1-2 (45,) energy =    -572.0140664
C           2.6656676    -0.6573232    -0.8087984
N           1.3461329    -0.5643620    -0.3266924
C           0.7350272     0.7387673    -0.0392318
H           0.0229183     0.6511225     0.7888643
H           0.1878267     1.1082530    -0.9198478
H           1.4969945     1.4695195     0.2256030
C           0.4089746    -1.5449235    -0.8692890
H           0.0458520    -1.2544472    -1.8657637
H          -0.4482228    -1.6273949    -0.1931690
H           0.9041896    -2.5116549    -0.9572191
C           3.7091467     0.5302511     1.2296253
O           2.7740947     0.2662941     2.1817821
H           2.1106994    -0.3217722     1.7743452
C           3.6468524     0.1863257    -0.1274390
N           4.8637442     0.5693417    -0.6924624
C           5.2269723     0.4542980    -2.0976475
H           6.2866115     0.6996740    -2.1992200
H           4.6421477     1.1473188    -2.7140273
H           5.0416158    -0.5628381    -2.4429225
C           5.6180107     1.1748660     0.2647000
H           6.5880399     1.5835449     0.0165421
C           4.9453118     1.1624085     1.4759243
H           5.3014628     1.5391717     2.4235069
O           2.9588498    -1.4579349    -1.6976365
24
278_C8H12N2O2_13-0-1-2 (60,) energy =    -572.0150107
C           2.6434657    -0.5887250    -0.8550102
N           1.3536344    -0.5609295    -0.2459952
C           0.7033570     0.7548355    -0.1098659
H          -0.0949970     0.6934646     0.6367820
H           0.2585804     1.0751675    -1.0644819
H           1.4251034     1.5059414     0.2094565
C           0.4365230    -1.5837812    -0.7544690
H           0.0837437    -1.3544125    -1.7696795
H          -0.4255803    -1.6433249    -0.0829123
H           0.9438360    -2.5487251    -0.7821940
C           3.7051968     0.5012744     1.2151181
O           2.7533859     0.2315918     2.1413594
H           2.0724289    -0.3062459     1.6836840
C           3.6483106     0.1936574    -0.1540694
N           4.8755255     0.5738746    -0.7018425
C           5.2437339     0.5004712    -2.1084664
H           6.3083504     0.7291501    -2.1968994
H           4.6744594     1.2249231    -2.7026762
H           5.0402465    -0.4993396    -2.4917865
C           5.6333527     1.1334160     0.2785338
H           6.6144375     1.5278987     0.0510356
C           4.9527725     1.0988844     1.4859607
H           5.3111657     1.4418385     2.4454209
O           2.8681058    -1.2971490    -1.8345582
24
278_C8H12N2O2_13-0-1-2 (75,) energy =    -572.0148015
C           2.6102910    -0.4496543    -0.9488664
N           1.3607452    -0.5068292    -0.2192386
C           0.6445869     0.7856609    -0.1908132
H          -0.1997543     0.7137036     0.5019360
H           0.2580886     1.0527384    -1.1861288
H           1.3121013     1.5771879     0.1541608
C           0.4852510    -1.5886061    -0.6884045
H           0.1052592    -1.4072775    -1.7026119
H          -0.3593239    -1.6733970     0.0023096
H           1.0387164    -2.5293621    -0.6950818
C           3.7370222     0.4749019     1.1636661
O           2.7789581     0.2099231     2.0766380
H           2.0718749    -0.2675299     1.5792510
C           3.6589847     0.2232427    -0.2198536
N           4.8895990     0.5993474    -0.7676754
C           5.2613505     0.5268391    -2.1730833
H           6.2833749     0.8998108    -2.2736817
H           4.5940348     1.1425160    -2.7841190
H           5.2006007    -0.5010208    -2.5340799
C           5.6747466     1.0832837     0.2288599
H           6.6685620     1.4499330     0.0095930
C           5.0062763     1.0186140     1.4431212
H           5.3841636     1.3169571     2.4099307
O           2.7406635    -1.0022562    -2.0373818
24
278_C8H12N2O2_13-0-1-2 (90,) energy =    -572.0137479
C           2.5752326    -0.3166392    -0.9711540
N           1.3512129    -0.4401280    -0.1695284
C           0.5434734     0.7938949    -0.2734044
H          -0.3235190     0.7117395     0.3895625
H           0.1891565     0.9618564    -1.3014695
H           1.1419282     1.6528653     0.0413335
C           0.5614605    -1.6150230    -0.5719288
H           0.1985022    -1.5401256    -1.6048344
H          -0.2922464    -1.7063615     0.1065748
H           1.1771677    -2.5137239    -0.4860834
C           3.7540136     0.4379955     1.1770803
O           2.7841566     0.1931575     2.0748761
H           2.0465019    -0.2058360     1.5395080
C           3.6652338     0.2342252    -0.2180573
N           4.9092252     0.5870889    -0.7573321
C           5.2790540     0.5452925    -2.1644019
H           6.3137627     0.8852714    -2.2529690
H           4.6326589     1.1997850    -2.7560970
H           5.1860529    -0.4682423    -2.5588503
C           5.7133284     0.9984209     0.2545074
H           6.7231024     1.3272001     0.0475381
C           5.0452828     0.9187657     1.4688466
H           5.4373272     1.1705810     2.4431722
O           2.6171680    -0.7042437    -2.1341821
24
278_C8H12N2O2_13-0-1-2 (105,) energy =    -572.0127743
C           2.5641527    -0.1546333    -1.0069564
N           1.3527367    -0.3402719    -0.1744597
C           0.4312062     0.7922237    -0.4000351
H          -0.4455262     0.6733655     0.2442681
H           0.1029243     0.8488238    -1.4478391
H           0.9335428     1.7271783    -0.1341027
C           0.6966951    -1.6196572    -0.4995461
H           0.3782273    -1.6668001    -1.5487461
H          -0.1751523    -1.7402227     0.1507626
H           1.3917678    -2.4417004    -0.3059807
C           3.7898972     0.4012896     1.1726433
O           2.8067786     0.1792892     2.0560085
H           2.0381205    -0.1191960     1.4893211
C           3.6900610     0.2632180    -0.2329452
N           4.9507244     0.5797365    -0.7603709
C           5.3188848     0.5767196    -2.1684106
H           6.3694670     0.8678429    -2.2441444
H           4.7045720     1.2832771    -2.7326282
H           5.1789401    -0.4149070    -2.6039818
C           5.7751085     0.8982322     0.2671695
H           6.8018624     1.1793630     0.0732452
C           5.1050557     0.8002589     1.4795852
H           5.5108322     0.9906189     2.4621540
O           2.5388109    -0.3692231    -2.2142457
24
278_C8H12N2O2_13-0-1-2 (120,) energy =    -572.0124291
C           2.5139102     0.0151393    -1.0120248
N           1.3160276    -0.2205109    -0.1658540
C           0.2763574     0.7738852    -0.4896761
H          -0.5891477     0.6052740     0.1587024
H          -0.0396844     0.7123113    -1.5399183
H           0.6650426     1.7781535    -0.2955619
C           0.8226297    -1.5937741    -0.3805574
H           0.5336388    -1.7682196    -1.4260594
H          -0.0431819    -1.7649065     0.2667614
H           1.6070540    -2.3057767    -0.1064718
C           3.7939909     0.3703744     1.1777419
O           2.8012697     0.1887147     2.0575527
H           2.0046353    -0.0027677     1.4794772
C           3.6758680     0.2930737    -0.2320991
N           4.9512317     0.5488837    -0.7583229
C           5.3080455     0.5804383    -2.1688933
H           6.3758229     0.8009200    -2.2429623
H           4.7382281     1.3486261    -2.6971887
H           5.0992002    -0.3810247    -2.6438698
C           5.8012666     0.7702626     0.2734280
H           6.8435811     0.9883929     0.0812022
C           5.1344509     0.6704488     1.4876618
H           5.5584403     0.7971586     2.4728062
O           2.4387843    -0.0389428    -2.2350738
24
278_C8H12N2O2_13-0-1-2 (135,) energy =    -572.0129219
C           2.4951500     0.1926847    -1.0410323
N           1.3040853    -0.0993700    -0.2161635
C           0.1615748     0.7322233    -0.6284663
H          -0.6808167     0.5230677     0.0381533
H          -0.1401187     0.5407970    -1.6663966
H           0.4297895     1.7878604    -0.5309109
C           0.9846581    -1.5380950    -0.2930265
H           0.7289556    -1.8468595    -1.3173465
H           0.1372804    -1.7527693     0.3657532
H           1.8461947    -2.1195609     0.0482459
C           3.8020306     0.3334500     1.1586308
O           2.7970328     0.1937909     2.0353252
H           1.9840323     0.1196793     1.4583355
C           3.6801124     0.3227547    -0.2513228
N           4.9685596     0.5188292    -0.7692104
C           5.3295210     0.5723784    -2.1781233
H           6.4074799     0.7387738    -2.2452620
H           4.7987741     1.3816084    -2.6837952
H           5.0752269    -0.3645848    -2.6808894
C           5.8324536     0.6363230     0.2687095
H           6.8874463     0.7892819     0.0832330
C           5.1589737     0.5319892     1.4786171
H           5.5885086     0.5933325     2.4676028
O           2.4049955     0.3231892    -2.2573365
24
278_C8H12N2O2_13-0-1-2 (150,) energy =    -572.0141979
C           2.4447436     0.3735899    -1.0524525
N           1.2670216    -0.0073158    -0.2854657
C           0.0473671     0.6559631    -0.7635003
H          -0.7616316     0.4420389    -0.0581019
H          -0.2491863     0.3188113    -1.7655932
H           0.2113346     1.7350618    -0.7994808
C           1.1046577    -1.4709372    -0.1903250
H           0.8609022    -1.9168480    -1.1667264
H           0.2945854    -1.6987589     0.5097171
H           2.0264392    -1.9212919     0.1847652
C           3.7855112     0.2729209     1.1330935
O           2.7793217     0.1653757     2.0220926
H           1.9542283     0.2132991     1.4747056
C           3.6522304     0.3355235    -0.2698011
N           4.9423873     0.4890610    -0.7908845
C           5.2944858     0.5792326    -2.2003044
H           6.3766284     0.7123751    -2.2719874
H           4.7825405     1.4197736    -2.6711844
H           5.0095169    -0.3337607    -2.7322755
C           5.8237611     0.4999283     0.2409794
H           6.8842939     0.5949612     0.0496579
C           5.1540427     0.3764398     1.4502764
H           5.5919301     0.3686269     2.4375273
O           2.3530650     0.7534455    -2.2159432
24
278_C8H12N2O2_13-0-1-2 (165,) energy =    -572.0150632
C           2.4224092     0.5722282    -0.9867639
N           1.2489756     0.0892999    -0.3224425
C           0.0016729     0.5975504    -0.9018097
H          -0.8207245     0.3566183    -0.2212143
H          -0.2068124     0.1571877    -1.8866016
H           0.0682189     1.6796380    -1.0216409
C           1.1921813    -1.3673821    -0.0918239
H           0.9632591    -1.9072323    -1.0233397
H           0.4057146    -1.5890816     0.6365688
H           2.1432779    -1.7284599     0.2991733
C           3.8002758     0.2444679     1.1556898
O           2.8047387     0.1683727     2.0701894
H           1.9703481     0.3190436     1.5735630
C           3.6470096     0.3675377    -0.2358142
N           4.9310091     0.4872544    -0.7728146
C           5.2608814     0.6055693    -2.1856156
H           6.3415170     0.7396443    -2.2736482
H           4.7388302     1.4561540    -2.6249263
H           4.9689892    -0.2978397    -2.7322506
C           5.8335886     0.4002580     0.2397351
H           6.8940000     0.4394822     0.0301463
C           5.1777116     0.2593810     1.4535046
H           5.6287530     0.1892975     2.4324002
O           2.3471841     1.1774584    -2.0536152
24
278_C8H12N2O2_13-0-1-2 (180,) energy =    -572.0133143
C           2.4135118     0.6929172    -0.8751583
N           1.2364016     0.1323645    -0.3188165
C           0.0180130     0.4842383    -1.0556584
H          -0.8496962     0.1901537    -0.4577454
H          -0.0269084    -0.0248546    -2.0285672
H          -0.0083710     1.5591907    -1.2338300
C           1.2425453    -1.3047608     0.0188712
H           1.0942554    -1.9177284    -0.8831895
H           0.4221122    -1.5152843     0.7123860
H           2.1795663    -1.5964714     0.4876760
C           3.8564588     0.2035157     1.2015427
O           2.8976186     0.1453268     2.1637229
H           2.0489544     0.3777799     1.7392909
C           3.6537184     0.3705747    -0.1755857
N           4.9184033     0.4652582    -0.7572647
C           5.1982607     0.6179287    -2.1777480
H           6.2797114     0.7049188    -2.3048569
H           4.7003850     1.5074106    -2.5648593
H           4.8438499    -0.2518490    -2.7420001
C           5.8574977     0.3026663     0.2137856
H           6.9087610     0.2985688    -0.0399790
C           5.2435473     0.1483822     1.4467109
H           5.7271247     0.0275352     2.4049520
O           2.3603919     1.4309333    -1.8581003
