24
278_C8H12N2O2_1-0-13-10 (-165,) energy =    -572.0159447
C           1.9205350     0.6491495    -0.0026689
N           1.3188807    -0.0579375    -1.0398382
C          -0.0622515     0.3123053    -1.3389536
H          -0.7722108    -0.1203290    -0.6190696
H          -0.3102783    -0.0519781    -2.3414039
H          -0.1648126     1.3967918    -1.3073825
C           1.5761624    -1.4925900    -1.1841409
H           1.5211484    -1.7856966    -2.2391198
H           0.8270385    -2.0778927    -0.6290338
H           2.5611839    -1.7481835    -0.7943110
C           3.8923331     0.9580397     1.4865864
O           3.2301399     1.5750822     2.4751620
H           2.3344319     1.7627769     2.0958953
C           3.3363451     0.5089125     0.2809915
N           4.3771673    -0.0855542    -0.4620286
C           4.4590727    -0.0699084    -1.9216745
H           5.1979390    -0.8097357    -2.2435218
H           4.7602210     0.9191855    -2.2892819
H           3.4933993    -0.3163214    -2.3590830
C           5.5222049     0.0039343     0.2906302
H           6.4625340    -0.3361939    -0.1231346
C           5.2660229     0.6040153     1.5037285
H           5.9648257     0.7727640     2.3102145
O           1.2537188     1.4584422     0.6769670
24
278_C8H12N2O2_1-0-13-10 (-150,) energy =    -572.0161760
C           1.9223565     0.7592305    -0.0939329
N           1.2899291    -0.0597427    -1.0169326
C          -0.1058113     0.2537126    -1.3067572
H          -0.7857635    -0.1707130    -0.5536843
H          -0.3639704    -0.1616517    -2.2867603
H          -0.2419959     1.3346254    -1.3171331
C           1.6128949    -1.4806997    -1.1276595
H           1.5488383    -1.8080703    -2.1723857
H           0.9029096    -2.0820202    -0.5397977
H           2.6164705    -1.6786156    -0.7536514
C           3.8513813     0.9263869     1.4709604
O           3.1727845     1.5178689     2.4680853
H           2.3201402     1.8031974     2.0591429
C           3.3367914     0.6075958     0.2089274
N           4.3677957    -0.0207743    -0.5132028
C           4.4753615    -0.0047843    -1.9684174
H           5.1677392    -0.7903724    -2.2849564
H           4.8438777     0.9636722    -2.3292057
H           3.4991430    -0.1890214    -2.4166541
C           5.4790799    -0.0533507     0.2899557
H           6.4168485    -0.4231674    -0.1033430
C           5.1975779     0.4845286     1.5283685
H           5.8650931     0.5582873     2.3746454
O           1.2785001     1.6360540     0.5187638
24
278_C8H12N2O2_1-0-13-10 (-135,) energy =    -572.0139705
C           1.9777755     0.8817548    -0.1537230
N           1.3035529    -0.0303153    -0.9420353
C          -0.0996023     0.2492307    -1.2241615
H          -0.7586554    -0.1720799    -0.4511415
H          -0.3661493    -0.1943898    -2.1898889
H          -0.2549274     1.3268331    -1.2551807
C           1.6729293    -1.4375068    -1.0389290
H           1.6096706    -1.7844148    -2.0780673
H           0.9870453    -2.0509734    -0.4361375
H           2.6853485    -1.5969488    -0.6716034
C           3.8572069     0.8997447     1.4763313
O           3.1628013     1.4660469     2.4822386
H           2.3592249     1.8467658     2.0594739
C           3.3908554     0.7080658     0.1728641
N           4.4081012     0.0479280    -0.5355610
C           4.5390157     0.0692059    -1.9861454
H           5.2208980    -0.7278925    -2.2959543
H           4.9293636     1.0318259    -2.3392234
H           3.5653622    -0.0989700    -2.4492857
C           5.4788112    -0.1053406     0.3062737
H           6.4109535    -0.5053901    -0.0701488
C           5.1701347     0.3727174     1.5639360
H           5.8012900     0.3552743     2.4405862
O           1.3684764     1.8276000     0.3841193
24
278_C8H12N2O2_1-0-13-10 (-120,) energy =    -572.0098959
C           2.0072864     0.9381843    -0.2672413
N           1.3020736    -0.0636642    -0.8973339
C          -0.1023691     0.1802584    -1.1991112
H          -0.7548216    -0.2405995    -0.4206318
H          -0.3578439    -0.2883615    -2.1566770
H          -0.2758615     1.2540952    -1.2505092
C           1.7159260    -1.4575699    -0.9611249
H           1.6660747    -1.8350537    -1.9911247
H           1.0468509    -2.0746442    -0.3445201
H           2.7317737    -1.5755341    -0.5881146
C           3.8281382     0.8379202     1.4312834
O           3.1050761     1.3654044     2.4449682
H           2.3486604     1.8243599     2.0222188
C           3.4173995     0.7515272     0.1011374
N           4.4351632     0.0881109    -0.5977510
C           4.5816356     0.1077484    -2.0445059
H           5.2830973    -0.6760731    -2.3432709
H           4.9548988     1.0766040    -2.3985730
H           3.6166258    -0.0855899    -2.5186612
C           5.4651063    -0.1555820     0.2722706
H           6.3982093    -0.5659465    -0.0899609
C           5.1182971     0.2628623     1.5422519
H           5.7117060     0.1767937     2.4409546
O           1.4269002     1.9538651     0.1569233
24
278_C8H12N2O2_1-0-13-10 (-105,) energy =    -572.0048144
C           1.9858946     1.0012558    -0.3830423
N           1.2586077    -0.0716739    -0.8481000
C          -0.1295321     0.1430571    -1.2322781
H          -0.8122873    -0.2678446    -0.4754209
H          -0.3352556    -0.3539053    -2.1884345
H          -0.3079944     1.2136737    -1.3204502
C           1.6919801    -1.4594049    -0.8091594
H           1.6936612    -1.9016304    -1.8150259
H           1.0024180    -2.0456048    -0.1863172
H           2.6913832    -1.5385842    -0.3849412
C           3.7515452     0.7652921     1.3961769
O           3.0010630     1.2152854     2.4370394
H           2.2864904     1.7577433     2.0542646
C           3.3848169     0.7884875     0.0550024
N           4.4144193     0.1684908    -0.6578233
C           4.5537269     0.2032439    -2.1031655
H           5.2893170    -0.5457082    -2.4079983
H           4.8804822     1.1897170    -2.4539722
H           3.5969904    -0.0340830    -2.5765121
C           5.4174580    -0.1553775     0.2172500
H           6.3549029    -0.5520848    -0.1482617
C           5.0356012     0.1765313     1.5032362
H           5.6026712     0.0256348     2.4104153
O           1.4431590     2.0899542    -0.1487450
24
278_C8H12N2O2_1-0-13-10 (-90,) energy =    -572.0020348
C           2.1689210     0.8167188    -0.6430930
N           1.1624332    -0.1072368    -0.8063003
C          -0.0851977     0.3044910    -1.4329878
H          -0.9299445     0.1546800    -0.7475079
H          -0.2700086    -0.2883725    -2.3384006
H          -0.0074523     1.3582470    -1.6971228
C           1.2268965    -1.4914186    -0.3652948
H           1.0576680    -2.1676084    -1.2142360
H           0.4548597    -1.6971418     0.3888160
H           2.2066139    -1.6972008     0.0653969
C           3.7756686     0.3292865     1.3601598
O           2.9359177     0.3919016     2.4418082
H           2.0919677     0.7763006     2.1588610
C           3.4313482     0.3429052     0.0130453
N           4.6257625     0.3046098    -0.7020504
C           4.7355651     0.3977985    -2.1464919
H           5.7928010     0.4570867    -2.4134366
H           4.2239056     1.2961811    -2.5033708
H           4.2982381    -0.4800222    -2.6374982
C           5.6684776     0.1866932     0.1741293
H           6.6808501     0.0833316    -0.1909731
C           5.1807770     0.1959097     1.4661978
H           5.7513912     0.1265898     2.3809341
O           2.0742750     1.9683470    -1.0696653
24
278_C8H12N2O2_1-0-13-10 (-75,) energy =    -572.0058678
C           2.2152134     0.7350042    -0.7972530
N           1.1185486    -0.1019342    -0.7227162
C          -0.1359133     0.3309423    -1.3212024
H          -0.9642164     0.1793178    -0.6178703
H          -0.3503668    -0.2435980    -2.2331353
H          -0.0528427     1.3859168    -1.5790807
C           1.1488556    -1.4716429    -0.2322790
H           0.8503601    -2.1637756    -1.0320265
H           0.4522299    -1.6084514     0.6058663
H           2.1562267    -1.7263442     0.0962434
C           3.7323005     0.2511022     1.2496486
O           2.8296710     0.2316753     2.2769455
H           1.9496515     0.4252784     1.9171433
C           3.4574497     0.2721069    -0.1189163
N           4.6930720     0.3569053    -0.7618632
C           4.8863144     0.4597828    -2.1983141
H           5.9497591     0.6114128    -2.3955508
H           4.3176500     1.3072048    -2.5876909
H           4.5605655    -0.4547141    -2.7084537
C           5.6867872     0.2917123     0.1692569
H           6.7233831     0.2675539    -0.1376669
C           5.1321230     0.2284510     1.4345664
H           5.6572865     0.1807440     2.3773125
O           2.1810912     1.7929783    -1.4279463
24
278_C8H12N2O2_1-0-13-10 (-60,) energy =    -572.0100118
C           2.2544461     0.6747718    -0.9043040
N           1.1096612    -0.0528751    -0.5828214
C          -0.1479129     0.4009313    -1.1656864
H          -0.9748657     0.1331381    -0.4992187
H          -0.3261040    -0.0628078    -2.1469249
H          -0.1118495     1.4814996    -1.2997884
C           1.1414419    -1.4666806    -0.2158757
H           0.8689474    -2.0936734    -1.0781145
H           0.4257214    -1.6713540     0.5892288
H           2.1405605    -1.7459520     0.1164923
C           3.7086978     0.2378420     1.1675903
O           2.7569807     0.2037958     2.1429693
H           1.8915560     0.3281963     1.7157710
C           3.4900405     0.2545363    -0.2148102
N           4.7481561     0.3745113    -0.8073924
C           5.0024005     0.4491260    -2.2370830
H           6.0645626     0.6527473    -2.3898724
H           4.4060301     1.2521850    -2.6739448
H           4.7490850    -0.4953752    -2.7333265
C           5.7008196     0.3370299     0.1644905
H           6.7499578     0.3423730    -0.0979871
C           5.0983221     0.2603730     1.4090254
H           5.5883604     0.2340086     2.3712583
O           2.2145371     1.6183781    -1.6939434
24
278_C8H12N2O2_1-0-13-10 (-45,) energy =    -572.0133848
C           2.2501163     0.6200617    -0.9866926
N           1.0924805    -0.0052790    -0.4746484
C          -0.1695056     0.4677323    -1.0423722
H          -0.9877837     0.1811544    -0.3741805
H          -0.3566759     0.0372846    -2.0366830
H          -0.1393259     1.5525682    -1.1432776
C           1.1038041    -1.4480785    -0.2018649
H           0.8576119    -2.0194966    -1.1099764
H           0.3586446    -1.6879403     0.5641282
H           2.0863508    -1.7592885     0.1508834
C           3.6573047     0.2384339     1.1159780
O           2.6733704     0.1838555     2.0506715
H           1.8264597     0.2953274     1.5750910
C           3.4837150     0.2838797    -0.2751081
N           4.7573364     0.4240771    -0.8293666
C           5.0604487     0.4840499    -2.2510884
H           6.1114711     0.7572838    -2.3695192
H           4.4259154     1.2325757    -2.7272978
H           4.8905189    -0.4863507    -2.7329908
C           5.6768623     0.3849436     0.1725181
H           6.7337278     0.4148895    -0.0554930
C           5.0382666     0.2820023     1.3981972
H           5.5008752     0.2548368     2.3738704
O           2.1845195     1.4252880    -1.9138748
24
278_C8H12N2O2_1-0-13-10 (-30,) energy =    -572.0149804
C           2.2511617     0.5382877    -1.0563543
N           1.0874716     0.0123528    -0.4171024
C          -0.1704144     0.5029370    -0.9865213
H          -0.9865451     0.2398763    -0.3065075
H          -0.3738506     0.0678695    -1.9749244
H          -0.1237799     1.5869120    -1.0968092
C           1.0614254    -1.4422298    -0.1794173
H           0.8292204    -1.9900369    -1.1055262
H           0.2903147    -1.6773738     0.5612347
H           2.0253743    -1.7832317     0.1976336
C           3.6322048     0.2246626     1.0822251
O           2.6355918     0.1467087     1.9962899
H           1.7992382     0.2719290     1.4974679
C           3.4798451     0.3206011    -0.3112611
N           4.7626723     0.4621744    -0.8456535
C           5.0946475     0.5348824    -2.2612437
H           6.1507636     0.7985917    -2.3536771
H           4.4748300     1.2890672    -2.7462295
H           4.9249875    -0.4290344    -2.7555389
C           5.6644912     0.4025237     0.1698099
H           6.7245555     0.4518060    -0.0394655
C           5.0084302     0.2681936     1.3839165
H           5.4574012     0.2235431     2.3652689
O           2.1673847     1.1864536    -2.0974761
24
278_C8H12N2O2_1-0-13-10 (-15,) energy =    -572.0146960
C           2.2484539     0.3917072    -1.1246034
N           1.0791880    -0.0190629    -0.3824755
C          -0.1682834     0.4947431    -0.9603731
H          -0.9826890     0.2940528    -0.2573987
H          -0.4035390     0.0285127    -1.9266051
H          -0.0834345     1.5718446    -1.1141153
C           1.0033470    -1.4766687    -0.1492502
H           0.7863810    -2.0201257    -1.0815221
H           0.2027242    -1.6855297     0.5673628
H           1.9440350    -1.8439234     0.2630383
C           3.6283948     0.2113358     1.0386778
O           2.6361417     0.1120299     1.9507852
H           1.8002524     0.2364291     1.4433500
C           3.4694951     0.3295957    -0.3547303
N           4.7517532     0.4645626    -0.8962747
C           5.0802624     0.5981688    -2.3082480
H           6.1661945     0.6806610    -2.3966793
H           4.6023332     1.4823531    -2.7327873
H           4.7396846    -0.2757003    -2.8716834
C           5.6547411     0.4134890     0.1167516
H           6.7131869     0.4887325    -0.0932152
C           5.0047011     0.2649379     1.3335638
H           5.4596746     0.2129727     2.3117533
O           2.1560495     0.8322336    -2.2674420
24
278_C8H12N2O2_1-0-13-10 (0,) energy =    -572.0129463
C           2.5159625    -0.3639191    -1.0413313
N           1.3025582    -0.5657434    -0.2449521
C           0.4866272     0.6686828    -0.2146861
H          -0.3632504     0.5194620     0.4588221
H           0.1042477     0.9269549    -1.2136723
H           1.0857830     1.5007698     0.1626769
C           0.5129957    -1.7038490    -0.7380922
H           0.1271462    -1.5379418    -1.7520708
H          -0.3255365    -1.8638348    -0.0533296
H           1.1359515    -2.6014505    -0.7484037
C           3.6571160     0.4431427     1.1135095
O           2.6785369     0.2038982     2.0071288
H           1.9907615    -0.2967580     1.4967683
C           3.6147057     0.1373856    -0.2638680
N           4.8498218     0.5265833    -0.7997106
C           5.2611161     0.4112890    -2.1915263
H           6.2867433     0.7799648    -2.2715773
H           4.6100503     1.0017495    -2.8411113
H           5.2163063    -0.6278893    -2.5237779
C           5.6112281     1.0332915     0.2018256
H           6.6152984     1.3814296    -0.0009430
C           4.9166319     1.0007578     1.4035844
H           5.2739370     1.3264508     2.3693491
O           2.5585370    -0.6802957    -2.2261756
24
278_C8H12N2O2_1-0-13-10 (15,) energy =    -572.0146962
C           2.5544352    -0.5204885    -1.0095184
N           1.3022044    -0.6068984    -0.2946921
C           0.5804106     0.6794341    -0.1988325
H          -0.2507026     0.5743740     0.5056930
H           0.1726387     0.9829530    -1.1751321
H           1.2475729     1.4622831     0.1641298
C           0.4303875    -1.6714165    -0.8054719
H           0.0453432    -1.4493004    -1.8098071
H          -0.4115056    -1.7885128    -0.1161389
H           0.9877669    -2.6084111    -0.8543981
C           3.6442471     0.4511043     1.1082950
O           2.6842850     0.1800984     2.0200988
H           2.0064708    -0.3487154     1.5379559
C           3.5969465     0.1480236    -0.2653096
N           4.8210335     0.5507532    -0.8085861
C           5.2181962     0.4475165    -2.2053591
H           6.2289292     0.8515485    -2.3005421
H           4.5410183     1.0202111    -2.8460717
H           5.1985889    -0.5922323    -2.5355484
C           5.5757159     1.0910415     0.1827034
H           6.5629641     1.4767573    -0.0332137
C           4.8908468     1.0439440     1.3885000
H           5.2451200     1.3821023     2.3511478
O           2.7023789    -1.0586533    -2.1036531
24
278_C8H12N2O2_1-0-13-10 (30,) energy =    -572.0149807
C           2.6465940    -0.6382477    -0.9053114
N           1.3486400    -0.6266678    -0.3085277
C           0.6734390     0.6805814    -0.2171113
H          -0.1475222     0.6177143     0.5043887
H           0.2553887     0.9786959    -1.1908012
H           1.3733376     1.4475366     0.1139615
C           0.4584387    -1.6751554    -0.8142693
H           0.1173178    -1.4687543    -1.8382828
H          -0.4124894    -1.7405047    -0.1547963
H           0.9842501    -2.6305648    -0.8184695
C           3.6701981     0.4544020     1.1772315
O           2.7126382     0.1643034     2.0901887
H           2.0352209    -0.3637289     1.6144258
C           3.6247978     0.1712714    -0.1980646
N           4.8534905     0.5689267    -0.7303213
C           5.2312113     0.5206153    -2.1353192
H           6.2987884     0.7395610    -2.2123706
H           4.6737147     1.2625663    -2.7192479
H           5.0212786    -0.4701554    -2.5384652
C           5.5990989     1.1190217     0.2645879
H           6.5770492     1.5281905     0.0497383
C           4.9106131     1.0586668     1.4665060
H           5.2587335     1.3903682     2.4336829
O           2.8941736    -1.3497097    -1.8764729
24
278_C8H12N2O2_1-0-13-10 (45,) energy =    -572.0133848
C           2.6691275    -0.7165417    -0.8412507
N           1.3373851    -0.6308992    -0.3803082
C           0.6949821     0.6829168    -0.2483328
H          -0.1044824     0.6330313     0.4986014
H           0.2508379     0.9986603    -1.2048033
H           1.4231163     1.4311892     0.0624552
C           0.4388262    -1.6675961    -0.8867783
H           0.1136203    -1.4587836    -1.9161504
H          -0.4437663    -1.7173957    -0.2412289
H           0.9528246    -2.6287157    -0.8824686
C           3.6858872     0.4434771     1.2002216
O           2.7495587     0.1372714     2.1352581
H           2.0579359    -0.3837738     1.6813532
C           3.5983883     0.1988132    -0.1781098
N           4.8190408     0.5929178    -0.7291663
C           5.1653222     0.5459430    -2.1414882
H           6.2315428     0.7606023    -2.2436160
H           4.5980087     1.2906012    -2.7128321
H           4.9465643    -0.4467300    -2.5370108
C           5.5898575     1.1300005     0.2548163
H           6.5563292     1.5550265     0.0200053
C           4.9309017     1.0477119     1.4712407
H           5.2992778     1.3674418     2.4349602
O           3.0010827    -1.5468434    -1.6855046
24
278_C8H12N2O2_1-0-13-10 (60,) energy =    -572.0100116
C           2.6943020    -0.7553379    -0.7544088
N           1.3348472    -0.5906726    -0.4932322
C           0.7207593     0.7151591    -0.2648635
H          -0.0369979     0.6512459     0.5250896
H           0.2256411     1.0721939    -1.1803966
H           1.4791391     1.4406438     0.0271337
C           0.4319857    -1.6098321    -1.0160431
H           0.0981133    -1.3659077    -2.0351797
H          -0.4491315    -1.6812551    -0.3692718
H           0.9509623    -2.5672503    -1.0463120
C           3.7292171     0.4717468     1.2507373
O           2.8290731     0.1650530     2.2274073
H           2.1248880    -0.3707537     1.8224319
C           3.5885016     0.2336841    -0.1213846
N           4.7880174     0.6348517    -0.7119014
C           5.0978611     0.5526614    -2.1301250
H           6.1439329     0.8325244    -2.2730116
H           4.4672038     1.2349633    -2.7125842
H           4.9375565    -0.4681725    -2.4817556
C           5.5901259     1.1819304     0.2425145
H           6.5396869     1.6228057    -0.0287534
C           4.9741915     1.0942307     1.4796913
H           5.3675985     1.4241788     2.4300064
O           3.1063807    -1.6845667    -1.4488328
24
278_C8H12N2O2_1-0-13-10 (75,) energy =    -572.0058678
C           2.6828606    -0.8168228    -0.6415593
N           1.3261217    -0.5556919    -0.6368298
C           0.7256796     0.7213267    -0.2813465
H           0.0139567     0.6081753     0.5475977
H           0.1763138     1.1303328    -1.1407771
H           1.5020608     1.4286058     0.0095065
C           0.4174919    -1.5562154    -1.1777524
H          -0.0000799    -1.2234454    -2.1382599
H          -0.4144695    -1.7282691    -0.4834902
H           0.9712120    -2.4810626    -1.3340485
C           3.7538916     0.4779732     1.3338045
O           2.9025003     0.1850903     2.3632426
H           2.2142058    -0.4134714     2.0325519
C           3.5641650     0.2122404    -0.0235563
N           4.7294193     0.6304322    -0.6675134
C           4.9973915     0.4944784    -2.0891244
H           6.0230171     0.8168338    -2.2814568
H           4.3158931     1.1162774    -2.6820632
H           4.8798193    -0.5492734    -2.3889515
C           5.5573843     1.2169914     0.2430251
H           6.4844388     1.6737900    -0.0751297
C           4.9895763     1.1405763     1.5017729
H           5.4056952     1.5034885     2.4302063
O           3.1456990    -1.8307251    -1.1668266
24
278_C8H12N2O2_1-0-13-10 (90,) energy =    -572.0020351
C           2.6729977    -0.8960027    -0.4792439
N           1.3660618    -0.5393415    -0.7209330
C           0.7909312     0.7609398    -0.4158879
H          -0.0159976     0.6672276     0.3238273
H           0.3654222     1.2090605    -1.3240039
H           1.5608661     1.4219835    -0.0184925
C           0.4552704    -1.5211972    -1.2911987
H           0.0552176    -1.1588786    -2.2472805
H          -0.3897009    -1.7039564    -0.6140019
H           1.0041535    -2.4477657    -1.4537308
C           3.8233609     0.4384881     1.4514655
O           3.0630436     0.1060062     2.5424443
H           2.4866014    -0.6367022     2.3054572
C           3.5678848     0.1500337     0.1153426
N           4.6440179     0.6529563    -0.6117429
C           4.8341344     0.4878942    -2.0413808
H           5.8151692     0.8842881    -2.3115345
H           4.0681995     1.0282823    -2.6107580
H           4.7901586    -0.5727841    -2.3045406
C           5.4935634     1.3038924     0.2386284
H           6.3660846     1.8146283    -0.1444371
C           5.0170424     1.1948533     1.5303229
H           5.4650864     1.5947863     2.4283497
O           3.1167573    -2.0018529    -0.7911513
24
278_C8H12N2O2_1-0-13-10 (105,) energy =    -572.0048143
C           2.5866000    -1.1163627    -0.2026874
N           1.4735669    -0.5298319    -0.7626810
C           1.2400948     0.9021506    -0.8626680
H           0.3397845     1.1714456    -0.2934727
H           1.0797608     1.2048562    -1.9067023
H           2.0832876     1.4586391    -0.4572324
C           0.3420926    -1.3773704    -1.1120177
H          -0.0297458    -1.1140775    -2.1099930
H          -0.4787568    -1.2491858    -0.3925758
H           0.6638014    -2.4175821    -1.0944596
C           3.9973829     0.0454226     1.5290314
O           3.4908049    -0.5966753     2.6153782
H           3.1074782    -1.4338323     2.2934497
C           3.7269493    -0.2609878     0.1998258
N           4.3957462     0.6869634    -0.5790986
C           4.5867835     0.5873219    -2.0154847
H           4.9212845     1.5551485    -2.3980564
H           3.6420148     0.3275581    -2.5009374
H           5.3314250    -0.1759923    -2.2720453
C           5.1171048     1.5035749     0.2512747
H           5.7910598     2.2430265    -0.1595464
C           4.8786802     1.1539316     1.5668120
H           5.2863952     1.6243442     2.4498712
O           2.5792084    -2.3065754     0.1409510
24
278_C8H12N2O2_1-0-13-10 (120,) energy =    -572.0098960
C           2.5742353    -1.0406838    -0.0931052
N           1.5188849    -0.5225781    -0.8113752
C           1.2685408     0.8968985    -1.0132724
H           0.3737947     1.2022435    -0.4521323
H           1.0903857     1.1168160    -2.0742838
H           2.1114848     1.4904740    -0.6638623
C           0.3828748    -1.3959010    -1.0756472
H          -0.0214224    -1.1794014    -2.0713739
H          -0.4156245    -1.2441282    -0.3352335
H           0.7093409    -2.4334184    -1.0223471
C           4.0972662     0.0186071     1.5708667
O           3.6506486    -0.6823424     2.6375554
H           3.1947333    -1.4680018     2.2682998
C           3.7386950    -0.2097358     0.2424226
N           4.3770675     0.7724803    -0.5270713
C           4.5679493     0.6895053    -1.9663855
H           4.8540939     1.6741525    -2.3462331
H           3.6360035     0.3848031    -2.4481242
H           5.3479019    -0.0360762    -2.2282795
C           5.1576317     1.5301131     0.3058414
H           5.8214039     2.2799155    -0.1034033
C           4.9895703     1.1183291     1.6137069
H           5.4497636     1.5425953     2.4942970
O           2.4935615    -2.1652897     0.4332590
24
278_C8H12N2O2_1-0-13-10 (135,) energy =    -572.0139704
C           2.5159005    -0.9925135     0.0122109
N           1.5343120    -0.5542619    -0.8552391
C           1.2391730     0.8543853    -1.0893919
H           0.3322151     1.1473886    -0.5400785
H           1.0616997     1.0410862    -2.1560410
H           2.0611910     1.4825280    -0.7502019
C           0.4142870    -1.4566134    -1.0960519
H           0.0103433    -1.2669584    -2.0966952
H          -0.3891560    -1.3085994    -0.3598591
H           0.7579716    -2.4876368    -1.0238292
C           4.1461923    -0.0190656     1.6198561
O           3.7414578    -0.7417174     2.6823398
H           3.2078257    -1.4782836     2.3055891
C           3.6902473    -0.1757234     0.3081488
N           4.3311521     0.8018883    -0.4701779
C           4.5082815     0.7102067    -1.9130609
H           4.7730010     1.6964858    -2.3048456
H           3.5787126     0.3820100    -2.3810151
H           5.2993181    -0.0033953    -2.1751920
C           5.1906557     1.4935914     0.3430821
H           5.8593961     2.2322408    -0.0785881
C           5.0827747     1.0446089     1.6439906
H           5.6083733     1.4220235     2.5091330
O           2.3740440    -2.0581012     0.6441261
24
278_C8H12N2O2_1-0-13-10 (150,) energy =    -572.0161762
C           2.4331828    -0.8942932     0.0772797
N           1.5322680    -0.5351896    -0.9133790
C           1.1895022     0.8620732    -1.1689540
H           0.2664065     1.1341296    -0.6349011
H           1.0205457     1.0256671    -2.2401443
H           1.9855503     1.5231428    -0.8291204
C           0.4360194    -1.4673267    -1.1568818
H           0.0559160    -1.3068089    -2.1714786
H          -0.3895054    -1.3239872    -0.4444435
H           0.7982371    -2.4899223    -1.0563572
C           4.1805391    -0.0348989     1.6275914
O           3.8072235    -0.7750154     2.6843642
H           3.1856351    -1.4481542     2.3146173
C           3.6202034    -0.0984703     0.3462899
N           4.2814735     0.8599085    -0.4437882
C           4.4376771     0.7588210    -1.8912390
H           4.7229450     1.7369958    -2.2893342
H           3.4975055     0.4495074    -2.3477471
H           5.2088656     0.0252169    -2.1576977
C           5.2321592     1.4620744     0.3403883
H           5.9172270     2.1761729    -0.0973561
C           5.1813785     0.9697129     1.6276096
H           5.7822544     1.2814265     2.4696239
O           2.2290072    -1.9055328     0.7809251
24
278_C8H12N2O2_1-0-13-10 (165,) energy =    -572.0159446
C           2.3571339    -0.7986300     0.1424013
N           1.5404015    -0.5331304    -0.9531337
C           1.1345005     0.8451114    -1.2376837
H           0.1840406     1.0804405    -0.7345282
H           0.9910412     0.9855704    -2.3154577
H           1.8873938     1.5490171    -0.8838038
C           0.4814394    -1.5080308    -1.2026722
H           0.1321579    -1.3853702    -2.2332431
H          -0.3717434    -1.3763509    -0.5213641
H           0.8729906    -2.5158151    -1.0659682
C           4.2052909    -0.0548671     1.6364217
O           3.8537659    -0.8104263     2.6862164
H           3.1498754    -1.4126602     2.3351886
C           3.5502999    -0.0140105     0.3980362
N           4.2415441     0.9135336    -0.4085779
C           4.3733473     0.8038085    -1.8605094
H           4.7142144     1.7637798    -2.2594101
H           3.4155620     0.5500298    -2.3108498
H           5.0978180     0.0260315    -2.1331583
C           5.2785698     1.4152661     0.3387133
H           5.9820144     2.1014006    -0.1146048
C           5.2747050     0.8768565     1.6065661
H           5.9463350     1.1129993     2.4191969
O           2.0982241    -1.7553911     0.9033858
24
278_C8H12N2O2_1-0-13-10 (180,) energy =    -572.0137261
C           2.3638472    -0.5960768     0.3562590
N           1.6029025    -0.5223115    -0.8158451
C           1.0933728     0.7885025    -1.2290076
H           0.0831112     0.9548393    -0.8246370
H           1.0409693     0.8588017    -2.3214939
H           1.7350797     1.5842909    -0.8509506
C           0.6170344    -1.5892263    -0.9821555
H           0.2827076    -1.5885567    -2.0248761
H          -0.2566108    -1.4560787    -0.3280861
H           1.0740753    -2.5508223    -0.7477194
C           4.3372114     0.1190616     1.7011040
O           4.0061255    -0.5580684     2.8102197
H           3.2087105    -1.0863345     2.5501520
C           3.5692420     0.1916309     0.5216890
N           4.3234854     0.9504456    -0.3986953
C           4.1444763     1.0486234    -1.8414190
H           5.1273939     1.1210931    -2.3133429
H           3.5568728     1.9282895    -2.1270391
H           3.6417841     0.1534874    -2.2110231
C           5.4667389     1.3561253     0.2259881
H           6.1980563     1.9411472    -0.3155985
C           5.5080733     0.8869393     1.5247700
H           6.2897835     1.0501512     2.2519784
O           2.0616775    -1.4261374     1.2396214
