21
407_C8H10N2O_16-0-1-12 (-165,) energy =    -495.6113678
C           1.3627310    -0.9498467     0.1950027
N           2.5512252    -0.8114128    -0.5220089
C           2.7879383    -1.6188242    -1.7275628
H           1.8445131    -1.7863535    -2.2451177
H           3.2541915    -2.5825664    -1.4931484
H           3.4634430    -1.0770506    -2.3870890
C           5.9707105     1.1834543     0.7953802
H           6.9014380     1.6587596     1.0885218
C           4.7479367     1.5463560     1.3632103
H           4.6993254     2.3278767     2.1169773
C           3.5762126     0.9161760     0.9605128
H           2.6188519     1.1776435     1.3815792
C           3.6735159    -0.0925009    -0.0184499
N           4.8414515    -0.4393317    -0.5737510
C           5.9534725     0.1870358    -0.1743560
H           6.8739257    -0.1337798    -0.6599991
C           0.3847400    -2.0161701    -0.2851980
H          -0.3868660    -2.1014494     0.4806607
H           0.8628504    -2.9896740    -0.4332978
H          -0.0953794    -1.7319535    -1.2290956
O           1.0925891    -0.2793348     1.1820957
21
407_C8H10N2O_16-0-1-12 (-150,) energy =    -495.6095934
C           1.3281022    -0.8459409     0.1139181
N           2.5195680    -0.6964743    -0.6024984
C           2.7674012    -1.5365559    -1.7823466
H           1.8224991    -1.7294359    -2.2897201
H           3.2498570    -2.4867979    -1.5266306
H           3.4307473    -1.0015347    -2.4604626
C           5.9770027     1.1087284     0.8712124
H           6.9178534     1.5320234     1.2084217
C           4.7523345     1.5190458     1.4024392
H           4.7135316     2.2864038     2.1711837
C           3.5680512     0.9585731     0.9387722
H           2.6061990     1.2634747     1.3198331
C           3.6557983    -0.0359550    -0.0554322
N           4.8243196    -0.4265830    -0.5784173
C           5.9487738     0.1375562    -0.1234908
H           6.8706570    -0.2146936    -0.5839596
C           0.4849341    -2.0774204    -0.1976566
H          -0.2400454    -2.1749733     0.6113194
H           1.0897265    -2.9870340    -0.2658310
H          -0.0671397    -1.9716538    -1.1391235
O           0.9829107    -0.0772506     0.9997222
21
407_C8H10N2O_16-0-1-12 (-135,) energy =    -495.6061743
C           1.3011289    -0.7688404     0.0276302
N           2.4967245    -0.5926398    -0.6890707
C           2.7660331    -1.4699645    -1.8361842
H           1.8268002    -1.6774191    -2.3501949
H           3.2469690    -2.4120613    -1.5485001
H           3.4370045    -0.9526533    -2.5211028
C           5.9517246     1.0368637     0.9746172
H           6.8910717     1.4151210     1.3651685
C           4.7199161     1.4817014     1.4620845
H           4.6752728     2.2307487     2.2483789
C           3.5392271     0.9817594     0.9278423
H           2.5710969     1.3205243     1.2643344
C           3.6365352     0.0073568    -0.0855777
N           4.8103872    -0.4149161    -0.5682273
C           5.9333383     0.0951083    -0.0476760
H           6.8617620    -0.2787155    -0.4769123
C           0.6105980    -2.1214849    -0.1038338
H          -0.1086440    -2.1926857     0.7130074
H           1.3281316    -2.9461028    -0.0448235
H           0.0645003    -2.2237638    -1.0489127
O           0.8730948     0.0692444     0.8051257
21
407_C8H10N2O_16-0-1-12 (-120,) energy =    -495.6016106
C           1.2547767    -0.7222125    -0.0385230
N           2.4336118    -0.5073729    -0.7921016
C           2.6829676    -1.3987577    -1.9327665
H           1.7432055    -1.5554569    -2.4658475
H           3.1109637    -2.3658295    -1.6417585
H           3.3914600    -0.9133640    -2.6030340
C           5.9122475     0.9295789     0.9915499
H           6.8555016     1.2604877     1.4142169
C           4.6860818     1.4064188     1.4654478
H           4.6512893     2.1335212     2.2725815
C           3.5022243     0.9679965     0.8882921
H           2.5390724     1.3388868     1.2080321
C           3.5873906     0.0198871    -0.1515687
N           4.7545819    -0.4330995    -0.6206362
C           5.8831720     0.0210294    -0.0594991
H           6.8072148    -0.3733907    -0.4796501
C           0.7281439    -2.1494375     0.0222144
H          -0.0958827    -2.1705523     0.7363266
H           1.5277341    -2.8214737     0.3550513
H           0.3692664    -2.5230405    -0.9422872
O           0.7636405     0.1549898     0.6488640
21
407_C8H10N2O_16-0-1-12 (-105,) energy =    -495.5966349
C           1.2155063    -0.6829479    -0.1166840
N           2.3994033    -0.4519264    -0.8806497
C           2.6447512    -1.3612669    -2.0081101
H           1.6959030    -1.5428299    -2.5184957
H           3.0981644    -2.3148587    -1.7104527
H           3.3289396    -0.8738585    -2.7029766
C           5.8648751     0.8309638     1.0329919
H           6.8040845     1.1268116     1.4891639
C           4.6362379     1.3104095     1.5009272
H           4.5963636     2.0039093     2.3368930
C           3.4598222     0.9170728     0.8803315
H           2.4967557     1.2982476     1.1923334
C           3.5514516     0.0119600    -0.1980027
N           4.7200787    -0.4442273    -0.6601072
C           5.8433164    -0.0321096    -0.0552868
H           6.7699139    -0.4247121    -0.4715190
C           0.8545452    -2.1324088     0.1660728
H          -0.0762672    -2.1590767     0.7342481
H           1.6631278    -2.5700141     0.7653502
H           0.7510147    -2.7456744    -0.7334241
O           0.6258453     0.2312979     0.4228251
21
407_C8H10N2O_16-0-1-12 (-90,) energy =    -495.5936336
C           1.2525410    -0.8718755    -0.3615512
N           2.5968793    -1.1209491    -0.8174097
C           2.6978752    -1.2406087    -2.2856121
H           1.8946016    -1.8931137    -2.6345435
H           3.6631735    -1.6835700    -2.5233618
H           2.6109678    -0.2697227    -2.7868229
C           5.7978610     0.8093304     1.0111040
H           6.6747360     1.2776222     1.4458755
C           4.5363647     0.9193508     1.6013344
H           4.4000281     1.4903417     2.5160011
C           3.4420469     0.3127210     0.9997943
H           2.4506057     0.4307173     1.4241952
C           3.6464045    -0.4220364    -0.1879039
N           4.8508250    -0.5167352    -0.7659089
C           5.8868425     0.0903367    -0.1772368
H           6.8415769    -0.0100368    -0.6917067
C           0.7985263    -1.7836080     0.7583562
H          -0.1109320    -1.3988723     1.2250533
H           1.5793849    -1.9470599     1.5065684
H           0.5783124    -2.7584772     0.3048411
O           0.4924632    -0.1559172    -0.9757176
21
407_C8H10N2O_16-0-1-12 (-75,) energy =    -495.5988677
C           1.2644626    -1.0179129    -0.3788821
N           2.5922000    -1.1419714    -0.8741894
C           2.6879029    -1.1474268    -2.3475725
H           1.9422727    -1.8397324    -2.7415513
H           3.6885475    -1.4823136    -2.6145305
H           2.5038588    -0.1542035    -2.7731857
C           5.7791971     0.7060238     1.0673029
H           6.6531454     1.1484199     1.5341030
C           4.4922573     0.9303555     1.5580516
H           4.3310791     1.5701967     2.4215808
C           3.4038406     0.3526473     0.9142826
H           2.3936931     0.5649578     1.2476750
C           3.6420536    -0.4738324    -0.2012394
N           4.8742791    -0.6789913    -0.6854086
C           5.9036281    -0.0926904    -0.0677099
H           6.8828207    -0.2800941    -0.5060411
C           0.9718220    -1.8210568     0.8761895
H           0.1223737    -1.3941346     1.4148937
H           1.8346407    -1.9198262     1.5390413
H           0.6923033    -2.8269435     0.5396064
O           0.3765446    -0.5302826    -1.0508410
21
407_C8H10N2O_16-0-1-12 (-60,) energy =    -495.6035327
C           1.2556321    -1.0965437    -0.4548487
N           2.5705257    -1.0828665    -0.9572755
C           2.6789693    -1.0460001    -2.4268497
H           1.9903782    -1.7801587    -2.8464860
H           3.7050981    -1.2955770    -2.6909485
H           2.4191985    -0.0585183    -2.8260997
C           5.7513222     0.6544766     1.0919736
H           6.6235410     1.0683274     1.5874336
C           4.4569738     0.9405123     1.5266183
H           4.2885388     1.6019478     2.3722511
C           3.3721847     0.3964788     0.8469160
H           2.3577808     0.6535578     1.1318577
C           3.6212345    -0.4596744    -0.2416969
N           4.8615349    -0.7228853    -0.6738132
C           5.8889157    -0.1679287    -0.0251220
H           6.8763733    -0.4019295    -0.4201125
C           1.0583482    -1.7740853     0.8933019
H           0.2695050    -1.2710316     1.4591604
H           1.9663854    -1.8433573     1.4947883
H           0.7109616    -2.7907898     0.6755348
O           0.3048396    -0.8122793    -1.1625566
21
407_C8H10N2O_16-0-1-12 (-45,) energy =    -495.6067552
C           1.2654035    -1.1785472    -0.5105319
N           2.5600114    -1.0182246    -1.0138911
C           2.6768950    -0.9707838    -2.4799901
H           2.0415206    -1.7464602    -2.9079242
H           3.7193753    -1.1481231    -2.7387556
H           2.3511692    -0.0011040    -2.8747954
C           5.7416086     0.6198097     1.1121718
H           6.6139812     1.0095328     1.6266366
C           4.4466606     0.9328618     1.5253289
H           4.2778576     1.5922875     2.3724108
C           3.3627773     0.4181743     0.8212896
H           2.3489062     0.6936282     1.0892655
C           3.6123216    -0.4364863    -0.2671524
N           4.8538293    -0.7237074    -0.6802761
C           5.8815787    -0.1976113    -0.0086032
H           6.8706604    -0.4513889    -0.3867980
C           1.1201250    -1.7237645     0.9044345
H           0.4330925    -1.0986646     1.4833537
H           2.0609959    -1.8318937     1.4456416
H           0.6512722    -2.7083814     0.8051621
O           0.2919762    -1.0756822    -1.2406773
21
407_C8H10N2O_16-0-1-12 (-30,) energy =    -495.6085982
C           1.2688599    -1.2755383    -0.5299959
N           2.5230203    -0.9367453    -1.0322471
C           2.6428612    -0.8891040    -2.4965865
H           2.0982561    -1.7313639    -2.9236818
H           3.6994020    -0.9520025    -2.7511950
H           2.2123625     0.0365924    -2.8963321
C           5.6920520     0.6567541     1.1449959
H           6.5610470     1.0372544     1.6719767
C           4.3946683     0.9651032     1.5539872
H           4.2207974     1.6116909     2.4098715
C           3.3154493     0.4622605     0.8342117
H           2.2996126     0.7320775     1.0987663
C           3.5715870    -0.3757671    -0.2647123
N           4.8155940    -0.6561122    -0.6749939
C           5.8396066    -0.1427467     0.0123158
H           6.8310141    -0.3915261    -0.3629975
C           1.1543241    -1.7038936     0.9275114
H           0.5567112    -0.9802467     1.4923337
H           2.1109173    -1.8465300     1.4324086
H           0.5976519    -2.6452561     0.9273128
O           0.3040149    -1.3575976    -1.2767845
21
407_C8H10N2O_16-0-1-12 (-15,) energy =    -495.6092861
C           1.2840819    -1.3382505    -0.5334328
N           2.4938925    -0.8681923    -1.0321165
C           2.6191097    -0.8571795    -2.4970084
H           2.2668791    -1.8078376    -2.9009129
H           3.6675652    -0.7114362    -2.7486615
H           2.0069086    -0.0570987    -2.9268192
C           5.7168390     0.5916600     1.1604870
H           6.5981157     0.9380526     1.6906120
C           4.4301487     0.9334992     1.5770393
H           4.2777480     1.5736825     2.4417750
C           3.3350083     0.4732243     0.8530343
H           2.3284323     0.7697973     1.1228142
C           3.5630198    -0.3567648    -0.2577676
N           4.7969447    -0.6673095    -0.6761508
C           5.8378138    -0.1949189     0.0158922
H           6.8203418    -0.4674923    -0.3660966
C           1.1523442    -1.6491419     0.9512685
H           0.6178794    -0.8429883     1.4661274
H           2.1032934    -1.8167400     1.4604116
H           0.5313640    -2.5450602     1.0244912
O           0.3571091    -1.5695753    -1.2981487
21
407_C8H10N2O_16-0-1-12 (0,) energy =    -495.6093282
C           1.3846121    -1.5947619    -0.4466849
N           2.7783820    -1.5816460    -0.4144295
C           3.4545818    -2.7971386    -0.8925881
H           3.5842916    -2.7771658    -1.9791110
H           2.8379298    -3.6523439    -0.6203749
H           4.4369651    -2.8660179    -0.4241972
C           5.2784621     1.6792268     0.2355338
H           5.9692050     2.5081511     0.3517402
C           4.1995011     1.4991454     1.1022347
H           4.0332228     2.1816571     1.9313289
C           3.3507173     0.4132485     0.9167294
H           2.5402644     0.2186200     1.6085847
C           3.5900663    -0.4490480    -0.1669064
N           4.6400113    -0.2978074    -0.9846284
C           5.4591966     0.7384071    -0.7763387
H           6.3022675     0.8175528    -1.4608855
C           0.6151946    -0.3048838    -0.2007474
H           0.3868167    -0.1894837     0.8648422
H          -0.3338753    -0.4041433    -0.7308459
H           1.1360886     0.5935881    -0.5385077
O           0.7808250    -2.6298688    -0.6933248
21
407_C8H10N2O_16-0-1-12 (15,) energy =    -495.6092861
C           1.4038094    -1.5723224    -0.3644856
N           2.7892628    -1.5556134    -0.4807699
C           3.4114382    -2.8265269    -0.8799998
H           2.8613889    -3.2546356    -1.7197170
H           3.3811145    -3.5433653    -0.0524249
H           4.4400404    -2.6257500    -1.1723962
C           5.3346649     1.6494728     0.2771300
H           6.0329856     2.4678956     0.4192608
C           4.2514207     1.4539325     1.1340365
H           4.0874975     2.1135290     1.9819105
C           3.3940417     0.3806612     0.9141321
H           2.5783806     0.1744524     1.5968522
C           3.6284918    -0.4523859    -0.1930347
N           4.6811222    -0.2834798    -1.0038940
C           5.5091818     0.7370290    -0.7623063
H           6.3539090     0.8296755    -1.4430602
C           0.6443903    -0.2595461    -0.2294027
H           0.3513310    -0.0913221     0.8129182
H          -0.2753391    -0.3747854    -0.8077326
H           1.1945464     0.6150362    -0.5816163
O           0.7971171    -2.6320220    -0.4453632
21
407_C8H10N2O_16-0-1-12 (30,) energy =    -495.6085982
C           1.4159394    -1.5812087    -0.3016358
N           2.7852142    -1.5373720    -0.5528728
C           3.4179323    -2.8133123    -0.9169683
H           2.7596790    -3.3529272    -1.5980888
H           3.5818690    -3.4377770    -0.0308487
H           4.3674974    -2.5932128    -1.4016770
C           5.3463795     1.6192626     0.3407037
H           6.0496919     2.4266427     0.5171428
C           4.2428662     1.4153805     1.1691045
H           4.0666869     2.0573836     2.0279629
C           3.3796495     0.3564158     0.9062518
H           2.5469073     0.1439766     1.5666491
C           3.6302006    -0.4533600    -0.2149163
N           4.7010286    -0.2755879    -0.9999018
C           5.5336544     0.7299074    -0.7166106
H           6.3934029     0.8301969    -1.3772275
C           0.6315724    -0.2752822    -0.2855646
H           0.2336901    -0.0811555     0.7163509
H          -0.2274197    -0.4257129    -0.9455273
H           1.1983434     0.5956156    -0.6181975
O           0.8333302    -2.6539508    -0.2299166
21
407_C8H10N2O_16-0-1-12 (45,) energy =    -495.6067552
C           1.4465970    -1.5737639    -0.2076827
N           2.7759305    -1.4980030    -0.6345522
C           3.4066390    -2.7767034    -0.9985245
H           2.7001315    -3.3611099    -1.5882841
H           3.6752240    -3.3566778    -0.1076039
H           4.2981325    -2.5559951    -1.5830739
C           5.3840863     1.6137953     0.2819223
H           6.0984374     2.4104978     0.4623614
C           4.2831476     1.4143275     1.1148324
H           4.1196508     2.0494168     1.9813294
C           3.4055883     0.3686379     0.8468928
H           2.5756747     0.1596429     1.5126162
C           3.6399907    -0.4330528    -0.2843848
N           4.7068323    -0.2583305    -1.0754783
C           5.5533528     0.7335221    -0.7859600
H           6.4100723     0.8306237    -1.4510326
C           0.6026717    -0.3087771    -0.2975475
H           0.0833684    -0.1309506     0.6493462
H          -0.1656110    -0.5077729    -1.0520624
H           1.1579849     0.5852947    -0.5840687
O           0.9279131    -2.6515565     0.0384560
21
407_C8H10N2O_16-0-1-12 (60,) energy =    -495.6035326
C           1.4805696    -1.5528150    -0.1287191
N           2.7650630    -1.4504176    -0.6963830
C           3.3896401    -2.7336688    -1.0638869
H           2.6543659    -3.3414185    -1.5922674
H           3.7263824    -3.2870638    -0.1793385
H           4.2373961    -2.5176579    -1.7118422
C           5.4265828     1.5938268     0.2958808
H           6.1540297     2.3741448     0.4945148
C           4.3089119     1.4093315     1.1099359
H           4.1446890     2.0402919     1.9793451
C           3.4145329     0.3840975     0.8202626
H           2.5718843     0.1868093     1.4739558
C           3.6507490    -0.4139320    -0.3142315
N           4.7320038    -0.2522482    -1.0884900
C           5.5938571     0.7194984    -0.7769533
H           6.4624073     0.8047416    -1.4282717
C           0.5575115    -0.3610364    -0.3359470
H          -0.0929833    -0.2290881     0.5329387
H          -0.0806930    -0.6145406    -1.1904701
H           1.0774303     0.5717350    -0.5610804
O           1.0531077    -2.6185806     0.2799252
21
407_C8H10N2O_16-0-1-12 (75,) energy =    -495.5988677
C           1.4665731    -1.4694707    -0.0293416
N           2.7024840    -1.3472236    -0.7229900
C           3.2959822    -2.6367940    -1.1289959
H           2.5198408    -3.2444562    -1.5967784
H           3.7039495    -3.1869031    -0.2731618
H           4.0896956    -2.4271791    -1.8436886
C           5.4671894     1.5814105     0.3358593
H           6.2215168     2.3309939     0.5515460
C           4.3088685     1.4631831     1.1050720
H           4.1378713     2.1179885     1.9553935
C           3.3801747     0.4756547     0.7965952
H           2.5041939     0.3328777     1.4202116
C           3.6262696    -0.3576334    -0.3121340
N           4.7443428    -0.2581956    -1.0435085
C           5.6361463     0.6801905    -0.7133921
H           6.5332287     0.7130057    -1.3300241
C           0.4475317    -0.3878225    -0.3415864
H          -0.2761680    -0.2968643     0.4720527
H          -0.0879283    -0.7195588    -1.2396173
H           0.8986000     0.5823750    -0.5625883
O           1.1594940    -2.4930438     0.5500725
21
407_C8H10N2O_16-0-1-12 (90,) energy =    -495.5936337
C           1.4949970    -1.4447339     0.0838657
N           2.6813422    -1.2705973    -0.7158627
C           3.2274199    -2.5437643    -1.2267509
H           2.4028541    -3.1357038    -1.6298131
H           3.7311134    -3.1218972    -0.4435214
H           3.9382996    -2.3137104    -2.0181387
C           5.5382697     1.5424463     0.3974889
H           6.3187832     2.2590195     0.6310471
C           4.3175954     1.5371159     1.0769854
H           4.1215818     2.2532109     1.8707242
C           3.3547379     0.5917049     0.7505980
H           2.4221776     0.5487110     1.3033122
C           3.6349325    -0.3273037    -0.2833612
N           4.8097679    -0.3362419    -0.9263733
C           5.7282748     0.5729701    -0.5828934
H           6.6686605     0.5174049    -1.1295884
C           0.3464546    -0.5385465    -0.3049747
H          -0.4211926    -0.5326890     0.4719737
H          -0.0855446    -0.9505052    -1.2259570
H           0.6760236     0.4792125    -0.5325883
O           1.3653621    -2.3842819     0.8374492
21
407_C8H10N2O_16-0-1-12 (105,) energy =    -495.5966348
C           1.4686559    -1.2663145     0.3260990
N           2.8265483    -1.4873995    -0.0560154
C           3.0495640    -2.3249092    -1.2422034
H           2.3514438    -3.1647221    -1.2085782
H           4.0674771    -2.7134365    -1.2047955
H           2.9365873    -1.7819106    -2.1887453
C           5.6145736     1.5684133     0.3970640
H           6.3704493     2.3447565     0.4576178
C           4.6131314     1.4394798     1.3660268
H           4.5748913     2.1177605     2.2144661
C           3.6739447     0.4246225     1.2575666
H           2.9101041     0.2733861     2.0084495
C           3.7526804    -0.4327896     0.1399417
N           4.7110362    -0.3254874    -0.7860125
C           5.6185712     0.6513222    -0.6463254
H           6.3830049     0.6940453    -1.4207881
C           0.4707307    -1.0303003    -0.7961965
H          -0.5218460    -0.8993424    -0.3630692
H           0.4422630    -1.8330746    -1.5382626
H           0.7658044    -0.1132846    -1.3219719
O           1.1603796    -1.1046575     1.4894537
21
407_C8H10N2O_16-0-1-12 (120,) energy =    -495.6016104
C           1.4581635    -1.1754119     0.2961986
N           2.8016695    -1.3877898    -0.0958635
C           3.0406075    -2.2376681    -1.2698663
H           2.3682724    -3.0965095    -1.2223049
H           4.0696833    -2.5936314    -1.2359171
H           2.9033748    -1.7104835    -2.2218850
C           5.7094352     1.5418521     0.4599612
H           6.4949518     2.2862355     0.5420776
C           4.7074842     1.4189197     1.4277008
H           4.6984921     2.0701146     2.2978717
C           3.7282942     0.4444180     1.2920142
H           2.9578290     0.3003653     2.0357045
C           3.7699013    -0.3764191     0.1466266
N           4.7302391    -0.2758598    -0.7782216
C           5.6748089     0.6598476    -0.6132418
H           6.4372144     0.6984134    -1.3899034
C           0.4069438    -1.2114135    -0.8045793
H          -0.5441770    -0.9053270    -0.3674408
H           0.2851588    -2.2000582    -1.2588550
H           0.6901851    -0.5176028    -1.6046894
O           1.1660670    -0.8355857     1.4285888
21
407_C8H10N2O_16-0-1-12 (135,) energy =    -495.6061742
C           1.4551294    -1.0919399     0.2542370
N           2.7841789    -1.2616585    -0.1692893
C           3.0476843    -2.1096872    -1.3394662
H           2.3478045    -2.9461051    -1.3343272
H           4.0629623    -2.4982620    -1.2675125
H           2.9672301    -1.5650570    -2.2873840
C           5.7923187     1.5329653     0.5395956
H           6.6049318     2.2425867     0.6582545
C           4.7676922     1.4228887     1.4834389
H           4.7660640     2.0490737     2.3718199
C           3.7512197     0.4939250     1.3011882
H           2.9575296     0.3662741     2.0216181
C           3.7832688    -0.2957876     0.1344245
N           4.7666167    -0.2074304    -0.7680030
C           5.7432113     0.6843042    -0.5602600
H           6.5209601     0.7146360    -1.3219333
C           0.3627496    -1.3770451    -0.7699565
H          -0.5559113    -0.9294376    -0.3886612
H           0.1869413    -2.4502267    -0.9086858
H           0.6087287    -0.9522877    -1.7484066
O           1.1693205    -0.6395941     1.3513222
21
407_C8H10N2O_16-0-1-12 (150,) energy =    -495.6095941
C           1.4269832    -0.9944680     0.2000433
N           2.7415290    -1.1565555    -0.2482513
C           3.0169462    -2.0421097    -1.3882034
H           2.3158818    -2.8761499    -1.3717399
H           4.0304313    -2.4296178    -1.2943540
H           2.9483060    -1.5210171    -2.3498846
C           5.8833043     1.4566763     0.5782794
H           6.7324178     2.1163551     0.7262155
C           4.8334307     1.3911493     1.4969622
H           4.8469144     2.0027320     2.3953579
C           3.7666943     0.5280419     1.2765284
H           2.9475541     0.4448027     1.9732781
C           3.7799028    -0.2471592     0.0999806
N           4.7876134    -0.1990829    -0.7796176
C           5.8085862     0.6309100    -0.5379048
H           6.6022301     0.6292995    -1.2836542
C           0.3187560    -1.5168271    -0.7074547
H          -0.6141255    -1.0820735    -0.3465589
H           0.2269269    -2.6084446    -0.6598906
H           0.4763708    -1.2405756    -1.7546928
O           1.1436785    -0.4090922     1.2352442
21
407_C8H10N2O_16-0-1-12 (165,) energy =    -495.6113684
C           1.3755646    -0.8965293     0.1084483
N           2.6833930    -1.0668133    -0.3451375
C           2.9695355    -1.9904942    -1.4524862
H           2.2834164    -2.8350954    -1.4091570
H           3.9897894    -2.3562040    -1.3510965
H           2.8875222    -1.5006684    -2.4294015
C           5.9304053     1.3676374     0.6226818
H           6.8092110     1.9769416     0.8086108
C           4.8537428     1.3377717     1.5110330
H           4.8746974     1.9271447     2.4239815
C           3.7460717     0.5429277     1.2396595
H           2.9013595     0.5007186     1.9081978
C           3.7507084    -0.2087089     0.0480578
N           4.7834246    -0.1920217    -0.8039324
C           5.8403256     0.5753434    -0.5165089
H           6.6512754     0.5498519    -1.2429361
C           0.2791474    -1.6429613    -0.6432228
H          -0.6719658    -1.2608868    -0.2708877
H           0.3167056    -2.7219189    -0.4520138
H           0.3349554    -1.4930860    -1.7261497
O           1.0806181    -0.1717962     1.0491199
21
407_C8H10N2O_16-0-1-12 (180,) energy =    -495.6114383
C           1.3810744    -1.0524122     0.2489169
N           2.5804335    -0.9373645    -0.4511490
C           2.8315578    -1.7201106    -1.6702895
H           1.8875957    -2.0347121    -2.1077986
H           3.4482406    -2.6000688    -1.4597945
H           3.3700971    -1.1053071    -2.3912576
C           5.9351319     1.2500735     0.7222688
H           6.8488411     1.7804634     0.9710229
C           4.7215227     1.5392793     1.3493014
H           4.6629946     2.3163193     2.1069247
C           3.5724550     0.8366571     1.0066451
H           2.6271008     1.0350984     1.4849315
C           3.6801102    -0.1619507     0.0179653
N           4.8397167    -0.4402246    -0.5912291
C           5.9309785     0.2506315    -0.2439822
H           6.8449322    -0.0182853    -0.7714930
C           0.2838482    -1.9147193    -0.3661197
H          -0.5520752    -1.8988604     0.3337547
H           0.5997446    -2.9517697    -0.5213652
H          -0.0554001    -1.5179359    -1.3297542
O           1.1720613    -0.4847175     1.3130423
