21
407_C8H10N2O_0-1-12-10 (-165,) energy =    -495.5970927
C           1.8882537    -1.8336938     0.4621988
N           2.4490714    -0.7353410    -0.2264592
C           1.8593532    -0.2457067    -1.4710284
H           1.3548367     0.7182124    -1.3239593
H           1.1200215    -0.9509068    -1.8407833
H           2.6285202    -0.1202632    -2.2408829
C           5.9644683     1.1115507     1.0484530
H           6.8973057     1.5376728     1.4036082
C           5.1500608     1.7812923     0.1383952
H           5.4292720     2.7596861    -0.2437704
C           3.9623024     1.1910491    -0.2840997
H           3.3178603     1.7195081    -0.9753959
C           3.6151748    -0.0724190     0.2347047
N           4.4108208    -0.7315245     1.0839336
C           5.5391367    -0.1442639     1.4823241
H           6.1457307    -0.7211472     2.1794396
C           0.9591309    -2.7498390    -0.3328658
H           0.8029673    -3.6370163     0.2820006
H           1.3796192    -3.0485233    -1.2990072
H          -0.0179615    -2.2863211    -0.5128151
O           2.1049552    -2.0557542     1.6353016
21
407_C8H10N2O_0-1-12-10 (-150,) energy =    -495.5990826
C           1.9288937    -1.8088956     0.5161730
N           2.5466541    -0.7971799    -0.2410916
C           2.0044847    -0.3648451    -1.5288665
H           1.3082125     0.4794365    -1.4278095
H           1.4746437    -1.1843940    -2.0115821
H           2.8222328    -0.0619332    -2.1880253
C           5.9873262     1.1310352     1.0991243
H           6.9076167     1.5767566     1.4630976
C           5.0921333     1.8441211     0.3044262
H           5.2911762     2.8766621     0.0298608
C           3.9246659     1.2238088    -0.1314964
H           3.2030617     1.7746576    -0.7242260
C           3.6899838    -0.1100401     0.2473858
N           4.5591534    -0.8083933     0.9845282
C           5.6634835    -0.1908857     1.4072465
H           6.3365755    -0.7960746     2.0130594
C           0.8989667    -2.6745528    -0.2042798
H           0.5901900    -3.4458151     0.5019947
H           1.3121823    -3.1530160    -1.0995168
H           0.0139678    -2.1019824    -0.5045454
O           2.1726162    -1.9892977     1.6928063
21
407_C8H10N2O_0-1-12-10 (-135,) energy =    -495.6004186
C           1.9183018    -1.7508387     0.5181652
N           2.6007170    -0.8422212    -0.3002830
C           2.1032931    -0.4751533    -1.6261698
H           1.2865603     0.2595555    -1.5871173
H           1.7441273    -1.3583106    -2.1578338
H           2.9232010    -0.0491843    -2.2078959
C           5.9772220     1.1416325     1.1078690
H           6.8845001     1.6026053     1.4855347
C           5.0119487     1.8811019     0.4267994
H           5.1400424     2.9475692     0.2615816
C           3.8642087     1.2376240    -0.0285183
H           3.0804826     1.7932569    -0.5332099
C           3.7307785    -0.1396767     0.2050448
N           4.6612549    -0.8605621     0.8365099
C           5.7439260    -0.2226814     1.2875210
H           6.4734334    -0.8425482     1.8066581
C           0.8200438    -2.5694008    -0.1508623
H           0.4069291    -3.2328153     0.6095031
H           1.2097273    -3.1727477    -0.9790293
H           0.0157196    -1.9385886    -0.5463533
O           2.1672062    -1.8792239     1.7022237
21
407_C8H10N2O_0-1-12-10 (-120,) energy =    -495.6013823
C           1.6162298    -1.5467616     0.4097859
N           2.3046927    -0.7132221    -0.4657309
C           2.2056109    -0.8239467    -1.9214352
H           1.1740315    -1.0144684    -2.2221294
H           2.8482742    -1.6209744    -2.3217880
H           2.5162369     0.1230939    -2.3711306
C           5.8248395     1.0766557     0.8534198
H           6.7691508     1.4896865     1.1946886
C           4.7651076     1.9004517     0.4768329
H           4.8583657     2.9822312     0.5190453
C           3.5750380     1.3108028     0.0554723
H           2.7133097     1.9068516    -0.2275613
C           3.4984770    -0.0843802     0.0259216
N           4.5138687    -0.8840201     0.3584886
C           5.6443427    -0.3052425     0.7772684
H           6.4497166    -0.9828436     1.0557218
C           0.5463680    -2.4460337    -0.1940557
H           0.1138039    -3.0292109     0.6195443
H           0.9615965    -3.1273773    -0.9452790
H          -0.2490401    -1.8641402    -0.6745218
O           1.8298670    -1.5228668     1.6109551
21
407_C8H10N2O_0-1-12-10 (-105,) energy =    -495.6025140
C           1.5774808    -1.4454850     0.3977332
N           2.3155320    -0.7029283    -0.5162438
C           2.3346329    -0.9869132    -1.9518248
H           1.3349631    -1.2501872    -2.3007693
H           3.0305906    -1.7991085    -2.2017189
H           2.6506889    -0.0861452    -2.4862565
C           5.8162301     1.1037863     0.8314978
H           6.7586281     1.5227167     1.1709296
C           4.6886119     1.9040893     0.6529820
H           4.7271912     2.9718460     0.8506416
C           3.5063854     1.3087770     0.2170765
H           2.5969307     1.8815519     0.0697284
C           3.5039958    -0.0685522    -0.0109528
N           4.5809089    -0.8430749     0.1338702
C           5.7087124    -0.2599795     0.5561030
H           6.5687201    -0.9169252     0.6746942
C           0.4870710    -2.3474455    -0.1622654
H          -0.0295570    -2.8001023     0.6847705
H           0.9045445    -3.1414300    -0.7921568
H          -0.2368226    -1.7879950    -0.7658014
O           1.7707911    -1.3423378     1.5994698
21
407_C8H10N2O_0-1-12-10 (-90,) energy =    -495.6039562
C           1.5101453    -1.3471942     0.3686363
N           2.3305207    -0.7122861    -0.5577298
C           2.4214757    -1.1356289    -1.9572109
H           1.4297655    -1.3768719    -2.3424676
H           3.0836566    -2.0009400    -2.0845276
H           2.8201192    -0.3071745    -2.5495416
C           5.8166971     1.0930189     0.8267073
H           6.7575269     1.5156041     1.1658891
C           4.6411686     1.8445413     0.8256902
H           4.6406857     2.8771136     1.1639492
C           3.4654982     1.2503200     0.3747402
H           2.5240333     1.7880142     0.3516772
C           3.5137853    -0.0838755    -0.0360562
N           4.6329140    -0.8089274    -0.0585257
C           5.7581109    -0.2230867     0.3700872
H           6.6547511    -0.8399707     0.3441557
C           0.4056182    -2.2383683    -0.1804530
H          -0.1761141    -2.5983744     0.6688129
H           0.8131798    -3.0982300    -0.7243309
H          -0.2559063    -1.6940321    -0.8639807
O           1.6472913    -1.1630355     1.5689508
21
407_C8H10N2O_0-1-12-10 (-75,) energy =    -495.6061236
C           1.4530439    -1.2456977     0.3413600
N           2.3580022    -0.7245758    -0.5820497
C           2.4919658    -1.2904254    -1.9287244
H           1.5060676    -1.4031309    -2.3835858
H           3.0086088    -2.2572476    -1.9299487
H           3.0710820    -0.5961239    -2.5408933
C           5.8236523     1.1255359     0.7873719
H           6.7613452     1.5665327     1.1112309
C           4.6080909     1.7917418     0.9574865
H           4.5742329     2.7759810     1.4165655
C           3.4382865     1.1836897     0.5149510
H           2.4704393     1.6600309     0.6191942
C           3.5308799    -0.0897818    -0.0568427
N           4.6857219    -0.7297270    -0.2437132
C           5.8059777    -0.1252898     0.1747981
H           6.7314156    -0.6739942     0.0083468
C           0.3583386    -2.1501606    -0.2048109
H          -0.2794176    -2.4339220     0.6329789
H           0.7707930    -3.0553086    -0.6647350
H          -0.2485506    -1.6400544    -0.9615665
O           1.5121581    -0.9598403     1.5279305
21
407_C8H10N2O_0-1-12-10 (-60,) energy =    -495.6087376
C           1.4104824    -1.1741084     0.3102988
N           2.3982476    -0.7643163    -0.5872623
C           2.5591264    -1.4281593    -1.8864945
H           1.5900965    -1.5034749    -2.3830984
H           3.0036802    -2.4260221    -1.7983328
H           3.2194323    -0.8213389    -2.5067074
C           5.8370014     1.1524599     0.7552075
H           6.7688081     1.6153383     1.0649299
C           4.5993936     1.7182113     1.0738335
H           4.5428711     2.6459705     1.6366748
C           3.4351648     1.0915264     0.6470447
H           2.4560015     1.4948758     0.8704115
C           3.5563046    -0.1086820    -0.0682549
N           4.7308599    -0.6488598    -0.3966103
C           5.8438975    -0.0238416     0.0120094
H           6.7827979    -0.4947752    -0.2743014
C           0.3277447    -2.0941177    -0.2343247
H          -0.3568232    -2.3112151     0.5861970
H           0.7408751    -3.0336899    -0.6174643
H          -0.2306565    -1.6201818    -1.0498167
O           1.3898700    -0.7907871     1.4703725
21
407_C8H10N2O_0-1-12-10 (-45,) energy =    -495.6106952
C           1.3550901    -1.1010580     0.2709830
N           2.4289100    -0.8029206    -0.5678956
C           2.6150214    -1.5191365    -1.8361810
H           1.6602470    -1.5960402    -2.3580186
H           3.0340388    -2.5216323    -1.6921410
H           3.3103268    -0.9547649    -2.4561816
C           5.8311096     1.2105898     0.7359197
H           6.7554567     1.6971372     1.0310785
C           4.5868341     1.6786961     1.1662854
H           4.5165745     2.5550326     1.8050670
C           3.4287054     1.0272389     0.7606343
H           2.4511076     1.3600749     1.0779058
C           3.5632096    -0.1040826    -0.0623840
N           4.7461240    -0.5494328    -0.4947202
C           5.8494535     0.0989136    -0.0997249
H           6.7905779    -0.2992647    -0.4756362
C           0.2880432    -2.0342009    -0.2847187
H          -0.4463717    -2.1883120     0.5063884
H           0.7005326    -3.0022266    -0.5889337
H          -0.2152565    -1.5987766    -1.1557454
O           1.2477976    -0.6309407     1.3946157
21
407_C8H10N2O_0-1-12-10 (-30,) energy =    -495.6115338
C           1.3271730    -1.0089495     0.2351796
N           2.4805611    -0.8216309    -0.5247930
C           2.6956366    -1.5861114    -1.7614057
H           1.7497767    -1.7049723    -2.2890487
H           3.1308981    -2.5726093    -1.5650043
H           3.3899578    -1.0388619    -2.3964056
C           5.8688942     1.2540433     0.7383099
H           6.7910368     1.7536752     1.0179286
C           4.6350354     1.6372133     1.2684416
H           4.5691896     2.4597401     1.9757442
C           3.4765007     0.9721508     0.8850451
H           2.5118711     1.2436188     1.2840645
C           3.5984303    -0.0874655    -0.0339616
N           4.7750431    -0.4531387    -0.5555847
C           5.8756239     0.2058330    -0.1754077
H           6.8062221    -0.1311114    -0.6295960
C           0.2751756    -1.9567240    -0.3279211
H          -0.5023792    -2.0518093     0.4306080
H           0.6814155    -2.9474152    -0.5570530
H          -0.1761560    -1.5605487    -1.2451100
O           1.1354903    -0.4494069     1.3061829
21
407_C8H10N2O_0-1-12-10 (-15,) energy =    -495.6115469
C           1.2944971    -0.9264249     0.1861421
N           2.5064898    -0.8431648    -0.4967649
C           2.7569220    -1.6647114    -1.6910730
H           1.8119288    -1.9374070    -2.1547067
H           3.3196382    -2.5717032    -1.4450195
H           3.3499726    -1.0916215    -2.4023299
C           5.8910798     1.2947960     0.6882362
H           6.8126477     1.8091015     0.9418197
C           4.6842209     1.5873564     1.3259876
H           4.6388346     2.3505926     2.0984901
C           3.5236644     0.9074100     0.9753086
H           2.5811072     1.1133027     1.4555114
C           3.6133352    -0.0751419    -0.0315911
N           4.7678842    -0.3577938    -0.6492889
C           5.8691306     0.3129433    -0.2958299
H           6.7770335     0.0415270    -0.8326029
C           0.2499897    -1.8983820    -0.3530447
H          -0.5689117    -1.9045228     0.3669615
H           0.6381808    -2.9156604    -0.4675989
H          -0.1432125    -1.5765557    -1.3243917
O           1.0395351    -0.2668456     1.1852947
21
407_C8H10N2O_0-1-12-10 (0,) energy =    -495.6113968
C           1.2693968    -0.8742123     0.1441596
N           2.5287401    -0.8961809    -0.4521140
C           2.8175849    -1.7626367    -1.6059745
H           1.9308372    -2.3281917    -1.8744179
H           3.6292930    -2.4539051    -1.3680632
H           3.1364410    -1.1623350    -2.4610776
C           5.8902940     1.3240583     0.6495083
H           6.8046162     1.8642013     0.8739406
C           4.7237461     1.5072508     1.3938724
H           4.7046265     2.2050524     2.2270066
C           3.5705862     0.7982751     1.0780106
H           2.6588009     0.9233703     1.6381774
C           3.6247308    -0.1000857    -0.0078942
N           4.7421759    -0.2793820    -0.7254781
C           5.8373429     0.4149470    -0.4007865
H           6.7134711     0.2267022    -1.0197874
C           0.1881322    -1.7815896    -0.4360215
H          -0.7063427    -1.6152834     0.1649552
H           0.4592646    -2.8415105    -0.3801721
H          -0.0393191    -1.5444856    -1.4810303
O           0.9945400    -0.1658972     1.1042970
21
407_C8H10N2O_0-1-12-10 (15,) energy =    -495.6115469
C           1.2597637    -0.8370116     0.1103467
N           2.5514745    -0.9591677    -0.3983759
C           2.8408319    -1.8811088    -1.5075732
H           2.0981609    -2.6750294    -1.5292579
H           3.8266962    -2.3199440    -1.3608844
H           2.8495229    -1.3609680    -2.4715260
C           5.8613480     1.3713618     0.6233507
H           6.7587263     1.9480133     0.8240686
C           4.7458516     1.4284281     1.4607564
H           4.7527382     2.0570035     2.3474318
C           3.6133827     0.6760700     1.1714976
H           2.7390694     0.7059419     1.8008490
C           3.6351422    -0.1314065     0.0161613
N           4.7038071    -0.1926978    -0.7892044
C           5.7817199     0.5381998    -0.4867819
H           6.6196431     0.4471310    -1.1764712
C           0.1698102    -1.6917719    -0.5282453
H          -0.7731725    -1.3781942    -0.0793593
H           0.3154102    -2.7585742    -0.3222610
H           0.1135526    -1.5634557    -1.6140815
O           0.9679898    -0.0826382     1.0291162
21
407_C8H10N2O_0-1-12-10 (30,) energy =    -495.6115338
C           1.2508885    -0.7510669     0.0395155
N           2.5626818    -0.9802014    -0.3723663
C           2.8567630    -1.9606187    -1.4269282
H           2.1958879    -2.8207076    -1.3235743
H           3.8884661    -2.2911563    -1.3214395
H           2.7452052    -1.5325378    -2.4296854
C           5.8325308     1.4137796     0.6078671
H           6.7176824     2.0117064     0.8006233
C           4.7700711     1.3602395     1.5126408
H           4.8098517     1.9169818     2.4451737
C           3.6536841     0.5825294     1.2291844
H           2.8167203     0.5285537     1.9074181
C           3.6361675    -0.1265980     0.0130347
N           4.6548096    -0.0901114    -0.8537194
C           5.7210721     0.6613037    -0.5561895
H           6.5214236     0.6557553    -1.2945926
C           0.1693658    -1.6278267    -0.5798701
H          -0.7878224    -1.2515627    -0.2176395
H           0.2733403    -2.6751468    -0.2729323
H           0.1799254    -1.5984106    -1.6744111
O           0.9491312     0.1030490     0.8618972
21
407_C8H10N2O_0-1-12-10 (45,) energy =    -495.6106952
C           1.2455878    -0.6952168    -0.0333079
N           2.5668176    -1.0263323    -0.3340626
C           2.8762039    -2.0488267    -1.3415054
H           2.2301882    -2.9155198    -1.1954821
H           3.9131490    -2.3580397    -1.2170092
H           2.7597718    -1.6751504    -2.3652874
C           5.7879016     1.4417039     0.5946075
H           6.6589176     2.0628179     0.7784899
C           4.7872965     1.2796645     1.5564273
H           4.8650834     1.7698431     2.5231845
C           3.6913479     0.4718262     1.2798456
H           2.8981231     0.3279535     1.9990356
C           3.6270103    -0.1411849     0.0167463
N           4.5863821    -0.0081425    -0.9032739
C           5.6389406     0.7673432    -0.6126670
H           6.3953774     0.8472151    -1.3917655
C           0.1622441    -1.5819098    -0.6318784
H          -0.7980027    -1.1622756    -0.3305524
H           0.2317015    -2.6108960    -0.2604636
H           0.2134996    -1.6192840    -1.7253829
O           0.9514502     0.2461143     0.6894936
21
407_C8H10N2O_0-1-12-10 (60,) energy =    -495.6087376
C           1.2475451    -0.6317754    -0.1101218
N           2.5640021    -1.0593347    -0.2927903
C           2.8851296    -2.1240670    -1.2508100
H           2.2190942    -2.9741076    -1.0922748
H           3.9105663    -2.4506818    -1.0755933
H           2.8116545    -1.7908599    -2.2923017
C           5.7617513     1.4655213     0.5443289
H           6.6240065     2.1045459     0.7074576
C           4.8470906     1.1983127     1.5667128
H           4.9848258     1.6218542     2.5578558
C           3.7638427     0.3671000     1.3098753
H           3.0320204     0.1326700     2.0719926
C           3.6213038    -0.1491237     0.0137158
N           4.4972491     0.0811763    -0.9655037
C           5.5434085     0.8746318    -0.6963364
H           6.2358337     1.0397798    -1.5200841
C           0.1526354    -1.5158203    -0.6889037
H          -0.8025312    -1.0442368    -0.4559084
H           0.1719114    -2.5200692    -0.2500797
H           0.2446749    -1.6266201    -1.7749612
O           0.9768596     0.3845274     0.5119618
21
407_C8H10N2O_0-1-12-10 (75,) energy =    -495.6061236
C           1.2424088    -0.5809890    -0.1829139
N           2.5449460    -1.0741234    -0.2413853
C           2.9011085    -2.1997191    -1.1119298
H           2.1905808    -3.0164796    -0.9717541
H           3.8920282    -2.5589097    -0.8269019
H           2.9326765    -1.9194451    -2.1712297
C           5.7279497     1.4908925     0.5320075
H           6.5810216     2.1466593     0.6764673
C           4.9262850     1.0915860     1.6035701
H           5.1433521     1.4267974     2.6140858
C           3.8517052     0.2425207     1.3619655
H           3.2020429    -0.1000230     2.1588960
C           3.6038015    -0.1506935     0.0424286
N           4.3714894     0.2062664    -0.9877872
C           5.4116256     1.0130907    -0.7375469
H           6.0178569     1.2864367    -1.5995115
C           0.1444862    -1.4725000    -0.7437252
H          -0.8053077    -0.9611945    -0.5837149
H           0.1172971    -2.4462641    -0.2414843
H           0.2775596    -1.6554691    -1.8159917
O           0.9885908     0.4992467     0.3287748
21
407_C8H10N2O_0-1-12-10 (90,) energy =    -495.6039562
C           1.2383751    -0.5255419    -0.2888198
N           2.5183898    -1.0644172    -0.2149615
C           2.9164913    -2.2654598    -0.9532382
H           2.1229665    -3.0129186    -0.9116017
H           3.8049483    -2.6912266    -0.4783954
H           3.1569152    -2.0453860    -2.0007209
C           5.6946359     1.5258093     0.5140126
H           6.5372398     2.1980107     0.6441940
C           5.0227803     0.9824703     1.6094792
H           5.3308349     1.2189369     2.6242752
C           3.9520243     0.1223961     1.3805495
H           3.3952029    -0.3285737     2.1945393
C           3.5845501    -0.1394132     0.0585881
N           4.2285263     0.3572747    -0.9984122
C           5.2614856     1.1765707    -0.7644557
H           5.7653181     1.5697616    -1.6457818
C           0.1387831    -1.4247056    -0.8347801
H          -0.7998428    -0.8744227    -0.7610265
H           0.0540181    -2.3572968    -0.2653807
H           0.3164210    -1.6888351    -1.8835660
O           1.0027770     0.6066489     0.1062948
21
407_C8H10N2O_0-1-12-10 (105,) energy =    -495.6025140
C           1.2435903    -0.4643855    -0.3949964
N           2.4949685    -1.0337392    -0.1916418
C           2.9036163    -2.3069464    -0.7864996
H           2.0813688    -3.0233592    -0.7536799
H           3.7323623    -2.7196854    -0.2036459
H           3.2379674    -2.1873695    -1.8259111
C           5.6970117     1.5292259     0.5250485
H           6.5393228     2.2025564     0.6514164
C           5.1486581     0.8418487     1.6070360
H           5.5540369     0.9649191     2.6076278
C           4.0666075    -0.0072662     1.3828906
H           3.5953596    -0.5597984     2.1888214
C           3.5737849    -0.1218031     0.0817193
N           4.1023711     0.5121060    -0.9667830
C           5.1386423     1.3268985    -0.7377052
H           5.5437644     1.8383852    -1.6092053
C           0.1552204    -1.3667946    -0.9582318
H          -0.7665727    -0.7850454    -0.9919650
H          -0.0039407    -2.2540392    -0.3347519
H           0.3991051    -1.7091313    -1.9705482
O           1.0208739     0.6980552    -0.0928238
21
407_C8H10N2O_0-1-12-10 (120,) energy =    -495.6013823
C           1.2296950    -0.4304225    -0.4977449
N           2.4636535    -0.9918225    -0.1855347
C           2.8524484    -2.3443882    -0.5862304
H           2.0165321    -3.0353549    -0.4650665
H           3.6657247    -2.6857678     0.0600220
H           3.2019864    -2.3844135    -1.6277547
C           5.6851570     1.5545172     0.5024523
H           6.5259665     2.2307109     0.6232172
C           5.2738458     0.7145303     1.5362485
H           5.7861174     0.7187175     2.4945211
C           4.1824077    -0.1250733     1.3233518
H           3.8090423    -0.7821226     2.1023527
C           3.5494772    -0.0896414     0.0777942
N           3.9493485     0.6902948    -0.9286092
C           4.9872906     1.5033688    -0.7051848
H           5.2812338     2.1382059    -1.5393827
C           0.1752399    -1.3641317    -1.0758722
H          -0.7184708    -0.7686944    -1.2653132
H          -0.0782544    -2.1713238    -0.3785175
H           0.5071719    -1.8249199    -2.0131426
O           0.9912909     0.7453579    -0.2747574
21
407_C8H10N2O_0-1-12-10 (135,) energy =    -495.6004182
C           2.3833156    -2.1808049    -0.0402619
N           2.5184047    -0.8050948    -0.2648338
C           1.5711196    -0.0630834    -1.0968996
H           1.6516751     1.0007556    -0.8648045
H           0.5471886    -0.3727709    -0.8795413
H           1.7511358    -0.1986583    -2.1727843
C           5.8348139     1.2522466     1.1813129
H           6.6839177     1.7692142     1.6172774
C           5.4269536     1.4930465    -0.1294593
H           5.9577035     2.2049094    -0.7560323
C           4.3349492     0.7943246    -0.6374524
H           4.0142558     0.9367782    -1.6643489
C           3.6759354    -0.1191997     0.1995234
N           4.0455378    -0.3392668     1.4641163
C           5.1094798     0.3215156     1.9266583
H           5.3857518     0.1061092     2.9577705
C           1.0477727    -2.8013665    -0.4341242
H           1.0985352    -3.8598597    -0.1773070
H           0.8474270    -2.7059963    -1.5074837
H           0.2107886    -2.3418986     0.1044027
O           3.2790814    -2.8582198     0.4278267
21
407_C8H10N2O_0-1-12-10 (150,) energy =    -495.5990825
C           2.3519923    -2.2021968     0.0050391
N           2.5707792    -0.8522617    -0.3241658
C           1.6744193    -0.1283467    -1.2251407
H           1.6267841     0.9227171    -0.9285740
H           0.6667452    -0.5363765    -1.1659949
H           2.0027159    -0.1796804    -2.2727159
C           5.8251622     1.2585144     1.1941953
H           6.6596515     1.7847978     1.6466596
C           5.3409122     1.5999529    -0.0668750
H           5.7934450     2.4062256    -0.6380948
C           4.2701891     0.8885529    -0.6009746
H           3.9019118     1.1211784    -1.5938122
C           3.7111103    -0.1554243     0.1575245
N           4.1520980    -0.4678292     1.3800142
C           5.1902674     0.2137351     1.8670168
H           5.5210561    -0.0826318     2.8615364
C           0.9737689    -2.7732823    -0.3168417
H           0.9574933    -3.7903070     0.0761048
H           0.7835385    -2.8129236    -1.3954834
H           0.1662592    -2.1963977     0.1481798
O           3.2103134    -2.9037178     0.5025962
21
407_C8H10N2O_0-1-12-10 (165,) energy =    -495.5970926
C           2.3086909    -2.2032442    -0.0046903
N           2.6133356    -0.8862856    -0.4144072
C           1.7697664    -0.1816817    -1.3779650
H           1.5242432     0.8226619    -1.0159398
H           0.8409545    -0.7239427    -1.5327513
H           2.2663032    -0.0879118    -2.3525803
C           5.8055768     1.2495986     1.2114433
H           6.6283771     1.7737633     1.6869854
C           5.2380606     1.6990564     0.0214216
H           5.6089603     2.5955496    -0.4684810
C           4.1851917     0.9890375    -0.5483701
H           3.7570511     1.3255851    -1.4842457
C           3.7297197    -0.1773280     0.0986080
N           4.2516989    -0.5929610     1.2575102
C           5.2651514     0.0967048     1.7812617
H           5.6573124    -0.2895556     2.7213245
C           0.8769060    -2.6861205    -0.2318333
H           0.7721178    -3.6128334     0.3336558
H           0.6834111    -2.9101495    -1.2874830
H           0.1247409    -1.9669302     0.1092368
O           3.1298500    -2.9448858     0.4933916
21
407_C8H10N2O_0-1-12-10 (180,) energy =    -495.5952174
C           2.2610991    -2.1776057     0.0948752
N           2.6519145    -0.9137762    -0.4107959
C           1.8675897    -0.2733911    -1.4654300
H           1.4209377     0.6695599    -1.1255993
H           1.0700866    -0.9335572    -1.7930221
H           2.4977940    -0.0653024    -2.3375332
C           5.8304887     1.2733436     1.1914350
H           6.6598529     1.8018547     1.6503991
C           5.1360673     1.7960460     0.1027143
H           5.4070610     2.7606478    -0.3185687
C           4.0806522     1.0791421    -0.4519791
H           3.5475692     1.4948087    -1.2963815
C           3.7493841    -0.1768055     0.1036935
N           4.3994157    -0.6663496     1.1641171
C           5.4068536     0.0383764     1.6795463
H           5.8992132    -0.4135360     2.5399629
C           0.8122368    -2.5989836    -0.1591911
H           0.6101380    -3.4232379     0.5261323
H           0.6707041    -2.9721301    -1.1806165
H           0.0901403    -1.7949287     0.0154246
O           3.0071912    -2.9169219     0.6999248
