19
071_C9H8N2_4-6-14-13 (-165,) energy =    -457.2785292
C           5.5150467     1.4030903     1.5989765
H           6.2748277     2.1054324     1.9306187
C           5.3270694     1.1642428     0.2368338
H           5.9350934     1.6849852    -0.4981247
C           4.3504643     0.2654337    -0.1895346
H           4.2011385     0.1177480    -1.2568187
C           3.5516571    -0.4180277     0.7416522
C           3.7430327    -0.1650211     2.1106438
H           3.1163973    -0.6882536     2.8250779
C           4.7150708     0.7372843     2.5320309
H           4.8518398     0.9206424     3.5944829
C           0.8148512    -2.6933550     0.3313344
H          -0.0479813    -3.2139936     0.7244482
N           1.5498920    -1.8383981     1.1122548
C           2.5169306    -1.3728382     0.3346015
N           2.4151795    -1.9055087    -0.9282773
H           3.0561037    -1.7568276    -1.6933329
C           1.3314770    -2.7564452    -0.9401063
H           1.0420118    -3.3052278    -1.8236016
19
071_C9H8N2_4-6-14-13 (-150,) energy =    -457.2777890
C           5.4996684     1.4438030     1.5115170
H           6.2561828     2.1397778     1.8635840
C           5.6751835     0.0702237     1.6866166
H           6.5741012    -0.3087584     2.1655744
C           4.7072706    -0.8235986     1.2300227
H           4.8744870    -1.8929410     1.3372290
C           3.5392269    -0.3537948     0.6080504
C           3.3779882     1.0290806     0.4225571
H           2.4835116     1.3850358    -0.0780748
C           4.3507756     1.9178237     0.8718167
H           4.2114606     2.9856654     0.7255570
C           0.9375389    -2.1776953    -1.0500050
H           0.1889483    -2.2639691    -1.8261032
N           1.7059300    -1.0472154    -0.9224111
C           2.5097573    -1.2698965     0.1064626
N           2.2861937    -2.5196833     0.6326661
H           2.7244931    -2.9031941     1.4571618
C           1.2742408    -3.1068612    -0.0958812
H           0.9028177    -4.0952385     0.1292435
19
071_C9H8N2_4-6-14-13 (-135,) energy =    -457.2760884
C           5.5058435     1.4311126     1.4998347
H           6.2715479     2.1193368     1.8474629
C           5.7066252     0.0530845     1.5957456
H           6.6345300    -0.3357567     2.0067305
C           4.7269668    -0.8304310     1.1431033
H           4.9042781    -1.9024012     1.1859628
C           3.5219434    -0.3450622     0.6106924
C           3.3370639     1.0419189     0.4990575
H           2.4169350     1.4126394     0.0586182
C           4.3213751     1.9215170     0.9433695
H           4.1640781     2.9933588     0.8570867
C           1.0330285    -2.2454751    -1.1390955
H           0.3738166    -2.3926196    -1.9840718
N           1.8234991    -1.1258138    -1.0384072
C           2.4935013    -1.2596348     0.0951169
N           2.1736088    -2.4459642     0.7109363
H           2.5078240    -2.7504134     1.6138009
C           1.2283147    -3.0805123    -0.0663689
H           0.7984209    -4.0309893     0.2117947
19
071_C9H8N2_4-6-14-13 (-120,) energy =    -457.2736575
C           5.5139349     1.4223584     1.4998637
H           6.2829115     2.1068961     1.8477550
C           5.7454931     0.0457793     1.5102452
H           6.6994575    -0.3443894     1.8549667
C           4.7612059    -0.8326913     1.0570263
H           4.9539119    -1.9024023     1.0375092
C           3.5231792    -0.3446763     0.6111130
C           3.3077379     1.0411565     0.5831282
H           2.3623057     1.4189278     0.2060533
C           4.2954065     1.9175679     1.0289972
H           4.1146278     2.9889667     1.0087124
C           1.1423233    -2.3374288    -1.1969213
H           0.5750893    -2.5579531    -2.0912740
N           1.9681323    -1.2394485    -1.1299274
C           2.4967711    -1.2624249     0.0820593
N           2.0577068    -2.3596733     0.7832960
H           2.2904724    -2.5770560     1.7415878
C           1.1786063    -3.0499302    -0.0239478
H           0.6757945    -3.9463757     0.3065223
19
071_C9H8N2_4-6-14-13 (-105,) energy =    -457.2712572
C           5.5152765     1.4188179     1.5141872
H           6.2754958     2.1050897     1.8777484
C           5.7941497     0.0542716     1.4175308
H           6.7739020    -0.3237240     1.6973318
C           4.8204504    -0.8264394     0.9456831
H           5.0426904    -1.8860381     0.8508760
C           3.5511430    -0.3534979     0.5814687
C           3.2856866     1.0204148     0.6658413
H           2.3125723     1.3915814     0.3579680
C           4.2611673     1.9007609     1.1332332
H           4.0431467     2.9634344     1.1977421
C           1.2495884    -2.4383249    -1.2401670
H           0.7707683    -2.7436599    -2.1609098
N           2.1464493    -1.3940750    -1.2163931
C           2.5307975    -1.2825920     0.0427959
N           1.9282805    -2.2391723     0.8231644
H           2.0487219    -2.3470606     1.8199675
C           1.0962611    -2.9807801     0.0110266
H           0.4909712    -3.7896167     0.3919428
19
071_C9H8N2_4-6-14-13 (-90,) energy =    -457.2701913
C           5.5056229     1.4165890     1.5398178
H           6.2403646     2.1163654     1.9291969
C           5.8580165     0.0839047     1.3181236
H           6.8676864    -0.2562229     1.5323527
C           4.9154904    -0.8142050     0.8166602
H           5.1895445    -1.8495952     0.6344297
C           3.6104994    -0.3889875     0.5308783
C           3.2662875     0.9514115     0.7542139
H           2.2592548     1.2876590     0.5235468
C           4.2090268     1.8494057     1.2557232
H           3.9319264     2.8871022     1.4212627
C           1.3520744    -2.5658043    -1.2469190
H           0.9530205    -2.9740605    -2.1657876
N           2.3587588    -1.6256581    -1.2629835
C           2.6058765    -1.3467422     0.0037732
N           1.7905675    -2.0770158     0.8331295
H           1.7911601    -2.0393097     1.8422434
C           0.9815860    -2.8637966     0.0400113
H           0.2446656    -3.5342478     0.4561327
19
071_C9H8N2_4-6-14-13 (-75,) energy =    -457.2712676
C           5.4983198     1.4121390     1.5478351
H           6.2129198     2.1255492     1.9496709
C           5.9111547     0.1212502     1.2109418
H           6.9472142    -0.1739779     1.3538014
C           4.9938645    -0.7954212     0.6977466
H           5.3102202    -1.8005673     0.4346982
C           3.6558942    -0.4262499     0.4991297
C           3.2474915     0.8690662     0.8496753
H           2.2114276     1.1607354     0.6992000
C           4.1649678     1.7841509     1.3670670
H           3.8390813     2.7883412     1.6249314
C           1.4515077    -2.6956070    -1.2226193
H           1.1273379    -3.2099441    -2.1173939
N           2.5500847    -1.8658283    -1.2358486
C           2.6701479    -1.4127751    -0.0006031
N           1.6677932    -1.9054228     0.7993105
H           1.5568147    -1.7187989     1.7855260
C           0.8855076    -2.7379647     0.0267991
H           0.0348359    -3.2663761     0.4303328
19
071_C9H8N2_4-6-14-13 (-60,) energy =    -457.2736322
C           5.5029572     1.4071663     1.5496057
H           6.2166593     2.1245793     1.9456745
C           5.9363183     0.1501644     1.1206014
H           6.9880235    -0.1150288     1.1884540
C           5.0213072    -0.7727894     0.6171939
H           5.3502301    -1.7532820     0.2864910
C           3.6616988    -0.4417810     0.5145183
C           3.2330077     0.8188323     0.9579698
H           2.1818085     1.0844036     0.8788265
C           4.1494345     1.7386595     1.4682908
H           3.8065158     2.7164915     1.7959932
C           1.5488125    -2.8163489    -1.1636487
H           1.3027728    -3.4292149    -2.0204546
N           2.6906044    -2.0496773    -1.1397085
C           2.6892387    -1.4418939     0.0348238
N           1.5632287    -1.7696960     0.7512601
H           1.3563307    -1.4671398     1.6922256
C           0.8316422    -2.6622202    -0.0031612
H          -0.0944947    -3.0902968     0.3499204
19
071_C9H8N2_4-6-14-13 (-45,) energy =    -457.2760529
C           5.5146232     1.4007054     1.5461941
H           6.2362254     2.1162338     1.9310181
C           5.9462626     0.1729461     1.0367249
H           7.0052784    -0.0709502     1.0302186
C           5.0230339    -0.7485258     0.5482397
H           5.3472611    -1.7070739     0.1554277
C           3.6522634    -0.4455102     0.5433826
C           3.2260362     0.7881653     1.0604672
H           2.1688002     1.0421603     1.0460209
C           4.1524111     1.7049964     1.5571157
H           3.8098449     2.6611478     1.9438414
C           1.6363765    -2.9200877    -1.0954479
H           1.4639094    -3.6200346    -1.9020160
N           2.7976038    -2.1889122    -1.0222090
C           2.6866588    -1.4462275     0.0677452
N           1.4747145    -1.6600456     0.6795441
H           1.1787394    -1.2575039     1.5569567
C           0.7986982    -2.6137796    -0.0510650
H          -0.1780536    -2.9729910     0.2361905
19
071_C9H8N2_4-6-14-13 (-30,) energy =    -457.2777692
C           5.5271977     1.3935222     1.5423284
H           6.2578200     2.1059968     1.9154406
C           5.9477317     0.1959455     0.9568373
H           7.0083544    -0.0272677     0.8771079
C           5.0139279    -0.7212652     0.4827288
H           5.3285887    -1.6559909     0.0302105
C           3.6391559    -0.4481946     0.5748264
C           3.2248179     0.7592121     1.1598301
H           2.1662825     1.0037950     1.2117904
C           4.1629899     1.6715054     1.6413884
H           3.8268942     2.6051565     2.0845622
C           1.7064756    -3.0141524    -1.0145926
H           1.5962818    -3.7938566    -1.7562772
N           2.8772916    -2.3082679    -0.8897553
C           2.6759558    -1.4437602     0.0933860
N           1.4008169    -1.5663367     0.5910079
H           1.0227914    -1.0670250     1.3826608
C           0.7736791    -2.5764969    -0.1060582
H          -0.2406667    -2.8782213     0.1074653
19
071_C9H8N2_4-6-14-13 (-15,) energy =    -457.2785247
C           5.5408755     1.3928405     1.5377617
H           6.2783398     2.1047314     1.8981726
C           5.9475265     0.2288826     0.8792063
H           7.0054341     0.0318504     0.7270577
C           5.0055170    -0.6865011     0.4195516
H           5.3088020    -1.5945185    -0.0907185
C           3.6327498    -0.4508805     0.6063453
C           3.2327562     0.7252759     1.2612340
H           2.1766294     0.9502259     1.3923811
C           4.1796718     1.6370941     1.7254049
H           3.8513890     2.5435492     2.2270064
C           1.7593286    -3.0995271    -0.9131761
H           1.6970045    -3.9547523    -1.5725655
N           2.9377458    -2.4211805    -0.7339649
C           2.6698814    -1.4422882     0.1185262
N           1.3453407    -1.4732839     0.4841610
H           0.8985779    -0.8763244     1.1640711
C           0.7541126    -2.5343273    -0.1664804
H          -0.2906613    -2.7751715    -0.0401606
19
071_C9H8N2_4-6-14-13 (0,) energy =    -457.2786463
C           5.5458723     1.3940037     1.5270965
H           6.2857464     2.1115533     1.8708865
C           5.9397418     0.2688493     0.7972021
H           6.9905051     0.1079774     0.5710138
C           4.9944657    -0.6515605     0.3555584
H           5.2873774    -1.5283360    -0.2119327
C           3.6300015    -0.4640269     0.6366049
C           3.2435760     0.6693995     1.3702457
H           2.1967512     0.8476420     1.6060226
C           4.1936271     1.5893528     1.8110462
H           3.8743797     2.4601737     2.3774060
C           1.7868132    -3.1849880    -0.7886072
H           1.7517644    -4.1112767    -1.3461125
N           2.9732786    -2.5433818    -0.5446607
C           2.6674787    -1.4574347     0.1517816
N           1.3106153    -1.3894359     0.3589033
H           0.8137187    -0.6673108     0.8582571
C           0.7367849    -2.4899506    -0.2390325
H          -0.3279655    -2.6666404    -0.2143080
19
071_C9H8N2_4-6-14-13 (15,) energy =    -457.2785248
C           5.5386709     1.4036002     1.5200043
H           6.2727635     2.1321417     1.8529808
C           5.9278856     0.3257273     0.7196529
H           6.9684267     0.2143710     0.4263725
C           4.9894127    -0.6070812     0.2886924
H           5.2787629    -1.4464031    -0.3347408
C           3.6389083    -0.4812878     0.6564046
C           3.2581681     0.5997867     1.4679057
H           2.2261204     0.7059678     1.7947238
C           4.2002549     1.5354190     1.8928507
H           3.8878133     2.3637032     2.5232160
C           1.7907952    -3.2546292    -0.6577315
H           1.7547978    -4.2396069    -1.1033901
N           2.9847857    -2.6531297    -0.3519198
C           2.6768349    -1.4765835     0.1749816
N           1.3129016    -1.3132686     0.2205130
H           0.8194342    -0.4859527     0.5209689
C           0.7357831    -2.4438564    -0.3155861
H          -0.3345958    -2.5583833    -0.3973675
19
071_C9H8N2_4-6-14-13 (30,) energy =    -457.2777692
C           5.5245655     1.4064548     1.5210037
H           6.2497632     2.1456793     1.8500583
C           5.9107248     0.3784852     0.6561356
H           6.9382139     0.3187366     0.3071398
C           4.9826445    -0.5669689     0.2285538
H           5.2699942    -1.3668547    -0.4460637
C           3.6510614    -0.5069998     0.6716573
C           3.2721134     0.5258065     1.5442657
H           2.2539122     0.5713960     1.9240095
C           4.2026092     1.4759731     1.9634386
H           3.8958558     2.2648490     2.6450872
C           1.7663502    -3.3094508    -0.5282365
H           1.7063011    -4.3365223    -0.8624457
N           2.9655481    -2.7436033    -0.1726985
C           2.6870776    -1.4986786     0.1838055
N           1.3381015    -1.2570027     0.0813948
H           0.8814368    -0.3698424     0.2341497
C           0.7396256    -2.4084357    -0.3829911
H          -0.3230743    -2.4716082    -0.5624493
19
071_C9H8N2_4-6-14-13 (45,) energy =    -457.2760529
C           5.5123414     1.4118502     1.5278164
H           6.2269620     2.1618086     1.8559318
C           5.8925942     0.4376819     0.6006326
H           6.9032570     0.4323558     0.2011652
C           4.9769683    -0.5212495     0.1738317
H           5.2604613    -1.2788556    -0.5499804
C           3.6697800    -0.5319277     0.6856881
C           3.2941023     0.4522719     1.6137074
H           2.2899975     0.4441277     2.0310534
C           4.2108535     1.4165368     2.0322392
H           3.9102333     2.1656977     2.7599201
C           1.7223102    -3.3440061    -0.3972272
H           1.6214961    -4.3974597    -0.6214922
N           2.9240445    -2.8126792     0.0052124
C           2.7018619    -1.5211892     0.1911660
N           1.3845397    -1.2151274    -0.0534005
H           0.9824533    -0.2890641    -0.0383384
C           0.7502853    -2.3748911    -0.4446376
H          -0.2949660    -2.3961520    -0.7140638
19
071_C9H8N2_4-6-14-13 (60,) energy =    -457.2736322
C           5.5010273     1.4166033     1.5340443
H           6.2061250     2.1764545     1.8602132
C           5.8654885     0.4995645     0.5450506
H           6.8534752     0.5487443     0.0950739
C           4.9603891    -0.4722615     0.1221346
H           5.2350667    -1.1851102    -0.6494348
C           3.6845381    -0.5544893     0.7001359
C           3.3224660     0.3774179     1.6850341
H           2.3370231     0.3185595     2.1402804
C           4.2273823     1.3540027     2.1018761
H           3.9392601     2.0614621     2.8749378
C           1.6599955    -3.3648322    -0.2602418
H           1.5055590    -4.4296209    -0.3726297
N           2.8553154    -2.8622687     0.1987661
C           2.7106983    -1.5477704     0.2091762
N           1.4465149    -1.1938786    -0.1973133
H           1.1094528    -0.2491557    -0.3141502
C           0.7687582    -2.3519410    -0.5143433
H          -0.2461266    -2.3421621    -0.8825264
19
071_C9H8N2_4-6-14-13 (75,) energy =    -457.2712676
C           5.4973408     1.4168738     1.5400234
H           6.2018552     2.1800142     1.8599542
C           5.8216863     0.5626077     0.4839206
H           6.7777868     0.6618803    -0.0230353
C           4.9167779    -0.4151177     0.0712823
H           5.1644731    -1.0814777    -0.7498179
C           3.6832744    -0.5613634     0.7216530
C           3.3613135     0.3074293     1.7747717
H           2.4061795     0.1998116     2.2819990
C           4.2654867     1.2881157     2.1841152
H           4.0092887     1.9484509     3.0083808
C           1.5883496    -3.3706615    -0.1107281
H           1.3748894    -4.4311620    -0.1058538
N           2.7548254    -2.8758917     0.4278962
C           2.7014725    -1.5673116     0.2538978
N           1.5255907    -1.2038501    -0.3564106
H           1.2617794    -0.2632386    -0.6121830
C           0.8079394    -2.3552307    -0.6037360
H          -0.1529393    -2.3399185    -1.0958520
19
071_C9H8N2_4-6-14-13 (90,) energy =    -457.2701913
C           5.5063903     1.4127074     1.5461976
H           6.2313493     2.1607216     1.8561294
C           5.7466158     0.6334682     0.4128596
H           6.6593625     0.7715351    -0.1605907
C           4.8169417    -0.3280152     0.0157727
H           5.0056213    -0.9421605    -0.8603393
C           3.6372505    -0.5209955     0.7482825
C           3.4055684     0.2641727     1.8862036
H           2.4979061     0.1101539     2.4631022
C           4.3354306     1.2256653     2.2831306
H           4.1469893     1.8259135     3.1692423
C           1.5094281    -3.3420650     0.0316815
H           1.2384607    -4.3822223     0.1536903
N           2.5984445    -2.8081326     0.6847556
C           2.6449601    -1.5395560     0.3213226
N           1.6211365    -1.2411019    -0.5438771
H           1.4463029    -0.3379379    -0.9603636
C           0.8859780    -2.3920627    -0.7371203
H           0.0187851    -2.4197954    -1.3797095
19
071_C9H8N2_4-6-14-13 (105,) energy =    -457.2712572
C           5.5206321     1.3923019     1.5578510
H           6.2736456     2.1141014     1.8629004
C           5.6632647     0.6999535     0.3539371
H           6.5309967     0.8746323    -0.2766280
C           4.6997100    -0.2307780    -0.0355288
H           4.8195446    -0.7851185    -0.9626073
C           3.5740252    -0.4664265     0.7674471
C           3.4477120     0.2209687     1.9826649
H           2.5907284     0.0191822     2.6185608
C           4.4137621     1.1478121     2.3734787
H           4.3037751     1.6774586     3.3160003
C           1.4217493    -3.2876369     0.1587655
H           1.0842083    -4.2899573     0.3861092
N           2.4074976    -2.6819558     0.9049781
C           2.5715081    -1.4834430     0.3735874
N           1.7401001    -1.3107533    -0.7062211
H           1.6689628    -0.4734868    -1.2662987
C           0.9906698    -2.4597830    -0.8472568
H           0.2435487    -2.5688636    -1.6190086
19
071_C9H8N2_4-6-14-13 (120,) energy =    -457.2736575
C           5.5222493     1.3812435     1.5675752
H           6.2864269     2.0894297     1.8765253
C           5.5982670     0.7720853     0.3138430
H           6.4279144     0.9952580    -0.3517331
C           4.6212857    -0.1423975    -0.0800706
H           4.6977516    -0.6385872    -1.0443041
C           3.5423556    -0.4393145     0.7669579
C           3.4862317     0.1604617     2.0337841
H           2.6693464    -0.0959712     2.7013760
C           4.4676054     1.0678980     2.4285627
H           4.4100676     1.5312395     3.4098839
C           1.3200330    -3.2141270     0.2471129
H           0.9004751    -4.1632073     0.5528413
N           2.2343992    -2.5530863     1.0338591
C           2.5334224    -1.4432433     0.3798469
N           1.8607765    -1.3880711    -0.8172193
H           1.8945311    -0.6236330    -1.4761980
C           1.0699654    -2.5138919    -0.9070005
H           0.4225915    -2.6971083    -1.7513838
19
071_C9H8N2_4-6-14-13 (135,) energy =    -457.2760884
C           5.5152862     1.3844339     1.5767086
H           6.2767091     2.0937577     1.8895920
C           5.5458309     0.8463269     0.2890824
H           6.3383464     1.1254509    -0.4002091
C           4.5727293    -0.0695068    -0.1103388
H           4.6227974    -0.5136801    -1.1016005
C           3.5411793    -0.4399963     0.7670254
C           3.5299521     0.0902139     2.0666833
H           2.7483248    -0.2223838     2.7518103
C           4.5086634     0.9974098     2.4655498
H           4.4858807     1.4055810     3.4724803
C           1.2127730    -3.1322154     0.3214859
H           0.7023911    -4.0136091     0.6859748
N           2.0889232    -2.4352935     1.1185329
C           2.5282018    -1.4308333     0.3770600
N           1.9776929    -1.4793731    -0.8813223
H           2.1111367    -0.7933052    -1.6100589
C           1.1228295    -2.5600402    -0.9237819
H           0.5502476    -2.8065317    -1.8052479
19
071_C9H8N2_4-6-14-13 (150,) energy =    -457.2777890
C           5.5085399     1.3999465     1.5837388
H           6.2610220     2.1157940     1.9030805
C           5.5007657     0.9306771     0.2692385
H           6.2539031     1.2709227    -0.4365219
C           4.5387417     0.0078289    -0.1395553
H           4.5677738    -0.3797434    -1.1553763
C           3.5576114    -0.4445286     0.7574657
C           3.5822017     0.0215059     2.0822134
H           2.8347772    -0.3480389     2.7766323
C           4.5497496     0.9360713     2.4889501
H           4.5547918     1.2916862     3.5158869
C           1.1108442    -3.0326764     0.3582631
H           0.5073607    -3.8348371     0.7613825
N           1.9617811    -2.3094744     1.1567461
C           2.5409756    -1.4239169     0.3601110
N           2.0937752    -1.5703446    -0.9311707
H           2.3344281    -0.9787503    -1.7128882
C           1.1701537    -2.5932891    -0.9419256
H           0.6601045    -2.8977182    -1.8434235
19
071_C9H8N2_4-6-14-13 (165,) energy =    -457.2785292
C           5.5061118     1.4133309     1.5973558
H           6.2519473     2.1316257     1.9264777
C           5.4557660     1.0170320     0.2601073
H           6.1668389     1.4199009    -0.4562037
C           4.5009687     0.0932764    -0.1623207
H           4.4997524    -0.2238954    -1.2028053
C           3.5727736    -0.4421573     0.7454710
C           3.6363987    -0.0430138     2.0913568
H           2.9233798    -0.4674263     2.7901697
C           4.5947203     0.8749849     2.5102615
H           4.6296718     1.1748226     3.5542951
C           1.0136504    -2.9207627     0.3672428
H           0.3183885    -3.6331079     0.7906321
N           1.8356714    -2.1653256     1.1639105
C           2.5517686    -1.4126617     0.3408968
N           2.2115145    -1.6724548    -0.9651236
H           2.5683959    -1.1987959    -1.7815075
C           1.2237739    -2.6331767    -0.9596266
H           0.7816836    -3.0073442    -1.8707095
19
071_C9H8N2_4-6-14-13 (180,) energy =    -457.2786464
C           5.5074479     1.4060880     1.6013799
H           6.2597259     2.1162777     1.9333199
C           5.3902167     1.0894844     0.2473515
H           6.0508751     1.5517009    -0.4812743
C           4.4254684     0.1783802    -0.1796681
H           4.3567682    -0.0489801    -1.2411813
C           3.5595980    -0.4330236     0.7415472
C           3.6857615    -0.1072556     2.1031426
H           3.0145461    -0.5823333     2.8104829
C           4.6499049     0.8025317     2.5255978
H           4.7332657     1.0428106     3.5822314
C           0.9050678    -2.8105381     0.3777810
H           0.1243038    -3.4253504     0.8049312
N           1.6869484    -2.0034951     1.1627093
C           2.5304415    -1.3961547     0.3396142
N           2.3055969    -1.7968298    -0.9556006
H           2.8063755    -1.4899985    -1.7758517
C           1.2676355    -2.7025786    -0.9430465
H           0.8993889    -3.1661107    -1.8458563
