16
269_C5H8N2O_0-4-7-8 (-165,) energy =    -380.0344167
C           1.4066594    -0.8575846    -0.4350318
H           0.8977877    -1.5934313    -1.0596504
H           1.0160908     0.1456926    -0.6438869
H           1.2417101    -1.0990327     0.6224199
O           2.7898537    -0.9434260    -0.7677131
C           3.4106158     0.8145761     0.9255680
H           2.5317017     0.9400511     1.5391198
C           3.5839253    -0.0383001    -0.1531521
N           4.8396238     0.1544558    -0.6355234
C           5.4922301    -0.5607041    -1.7122337
H           4.7394224    -0.8903176    -2.4310151
H           6.0379921    -1.4347835    -1.3380540
H           6.1951503     0.1206293    -2.1944993
N           5.5226610     1.0812000     0.0955129
C           4.6560132     1.4769914     1.0223822
H           4.9512694     2.2356305     1.7362456
16
269_C5H8N2O_0-4-7-8 (-150,) energy =    -380.0334516
C           1.4172014    -0.8420031    -0.4796851
H           0.9346735    -1.6147699    -1.0807635
H           1.1340474     0.1516452    -0.8461352
H           1.1019782    -0.9474756     0.5657336
O           2.8222886    -1.0531864    -0.6158837
C           3.4462227     0.7658602     1.0098840
H           2.5952819     0.8569587     1.6677526
C           3.6044798    -0.0976348    -0.0624335
N           4.8203583     0.1532296    -0.6174899
C           5.4526640    -0.5505927    -1.7139213
H           4.6809658    -0.9311070    -2.3859176
H           6.0591186    -1.3894504    -1.3531125
H           6.0956805     0.1545671    -2.2431220
N           5.4951827     1.1204526     0.0645609
C           4.6589499     1.4907633     1.0303051
H           4.9541954     2.2744668     1.7165485
16
269_C5H8N2O_0-4-7-8 (-135,) energy =    -380.0322924
C           1.4462198    -0.7850797    -0.5577444
H           0.9762221    -1.6227929    -1.0766139
H           1.2956824     0.1403076    -1.1257597
H           0.9963407    -0.6782241     0.4365237
O           2.8365002    -1.1067003    -0.4643699
C           3.4954939     0.7303152     1.1234323
H           2.6785543     0.7881966     1.8268983
C           3.6226419    -0.1248491     0.0406428
N           4.8036915     0.1637605    -0.5724117
C           5.3995454    -0.5086918    -1.7085715
H           4.6222772    -1.0736432    -2.2251693
H           6.1914195    -1.1939866    -1.3870025
H           5.8268295     0.2404707    -2.3787515
N           5.4823420     1.1461478     0.0783108
C           4.6848216     1.4899972     1.0873891
H           4.9933881     2.2781178     1.7626181
16
269_C5H8N2O_0-4-7-8 (-120,) energy =    -380.0313518
C           1.5092045    -0.7847505    -0.6822647
H           1.0133066    -1.6777698    -1.0680309
H           1.5189610    -0.0023988    -1.4505981
H           0.9683662    -0.4197937     0.1985620
O           2.8415227    -1.1858869    -0.3420274
C           3.5596213     0.6645280     1.1962637
H           2.7810132     0.6997246     1.9436074
C           3.6431029    -0.1865752     0.1066850
N           4.7907850     0.1196952    -0.5624824
C           5.3326076    -0.5287495    -1.7391662
H           4.5976740    -1.2473445    -2.1039981
H           6.2620376    -1.0512045    -1.4921516
H           5.5388581     0.2189756    -2.5097639
N           5.4812505     1.1145688     0.0506044
C           4.7305264     1.4453720     1.1008055
H           5.0629906     2.2354542     1.7622446
16
269_C5H8N2O_0-4-7-8 (-105,) energy =    -380.0307146
C           1.5945816    -0.7436956    -0.7828135
H           1.0466310    -1.6505094    -1.0468394
H           1.7817901    -0.1484294    -1.6850984
H           1.0048605    -0.1496214    -0.0751953
O           2.8242566    -1.1793396    -0.1876563
C           3.6118910     0.6678675     1.3089298
H           2.8673413     0.6904955     2.0907251
C           3.6485958    -0.1767843     0.2127836
N           4.7678449     0.1348886    -0.5033859
C           5.2496383    -0.4944456    -1.7159892
H           4.5944898    -1.3350619    -1.9491038
H           6.2700715    -0.8562362    -1.5635738
H           5.2460843     0.2204041    -2.5448272
N           5.4764294     1.1331901     0.0790947
C           4.7732796     1.4548239     1.1655125
H           5.1339765     2.2417648     1.8157254
16
269_C5H8N2O_0-4-7-8 (-90,) energy =    -380.0301597
C           1.6584241    -0.7534500    -0.8543000
H           1.0412215    -1.6400011    -1.0133607
H           2.0020566    -0.3671675    -1.8220799
H           1.0721313     0.0204323    -0.3453507
O           2.7610948    -1.1749570    -0.0395820
C           3.6530197     0.6516377     1.4103581
H           2.9523546     0.6686962     2.2317166
C           3.6225965    -0.1837129     0.3080002
N           4.7030223     0.1273724    -0.4676108
C           5.1109410    -0.4923599    -1.7116058
H           4.5591510    -1.4266832    -1.8299454
H           6.1823820    -0.7012888    -1.6718730
H           4.9087691     0.1661339    -2.5635918
N           5.4444007     1.1222845     0.0785023
C           4.8077609     1.4357187     1.2076541
H           5.2090907     2.2156056     1.8423351
16
269_C5H8N2O_0-4-7-8 (-75,) energy =    -380.0292603
C           1.7353758    -0.7670490    -0.9362400
H           1.0462738    -1.6108060    -1.0088690
H           2.2104644    -0.6022043    -1.9106444
H           1.1863951     0.1362894    -0.6449307
O           2.6935904    -1.1229971     0.0693021
C           3.6961312     0.6553163     1.4870399
H           3.0307004     0.6696754     2.3371050
C           3.6006670    -0.1593920     0.3738873
N           4.6466063     0.1518547    -0.4491176
C           5.0103932    -0.4693516    -1.7062286
H           4.6006174    -1.4815373    -1.7346221
H           6.0993501    -0.5135038    -1.7639105
H           4.6323972     0.1028977    -2.5617561
N           5.4271902     1.1288255     0.0792540
C           4.8518310     1.4266967     1.2440889
H           5.2938431     2.1896500     1.8722677
16
269_C5H8N2O_0-4-7-8 (-60,) energy =    -380.0275948
C           1.7828034    -0.7959985    -0.9906996
H           0.9662220    -1.5184842    -0.9332463
H           2.3308896    -0.9506846    -1.9262192
H           1.3756673     0.2221519    -0.9720246
O           2.5995045    -1.0367331     0.1608715
C           3.7277381     0.6562705     1.5577867
H           3.0882420     0.6686482     2.4274422
C           3.5660517    -0.1223089     0.4267431
N           4.5858388     0.1873907    -0.4306450
C           4.9323757    -0.4323710    -1.6947901
H           4.6733626    -1.4941801    -1.6690680
H           6.0095110    -0.3241325    -1.8272556
H           4.4209634     0.0472416    -2.5378804
N           5.4157653     1.1270108     0.1003097
C           4.8944058     1.4032706     1.2939178
H           5.3789029     2.1371655     1.9254445
16
269_C5H8N2O_0-4-7-8 (-45,) energy =    -380.0257443
C           1.8530270    -0.8619482    -1.0697608
H           0.8885531    -1.3536431    -0.9257996
H           2.4011827    -1.3846724    -1.8605179
H           1.6892428     0.1816101    -1.3648514
O           2.5229102    -0.9414511     0.1899437
C           3.7760036     0.6298731     1.5906281
H           3.1498244     0.6430650     2.4698480
C           3.5514336    -0.0928125     0.4331978
N           4.5661683     0.2018488    -0.4364449
C           4.8928288    -0.3904363    -1.7206302
H           4.8257201    -1.4817389    -1.6709456
H           5.9205830    -0.1024381    -1.9420095
H           4.2400604    -0.0228948    -2.5198955
N           5.4546133     1.0794392     0.1178578
C           4.9718062     1.3296901     1.3315170
H           5.5016835     2.0158847     1.9800876
16
269_C5H8N2O_0-4-7-8 (-30,) energy =    -380.0241127
C           1.8614705    -0.8956754    -1.0915641
H           0.8543404    -1.2970403    -0.9614106
H           2.4372623    -1.5842773    -1.7188825
H           1.7989735     0.0846004    -1.5798132
O           2.4034079    -0.7871456     0.2221551
C           3.7790006     0.6512797     1.6213406
H           3.1603083     0.6774306     2.5055425
C           3.4995862    -0.0231520     0.4463718
N           4.5188457     0.2394548    -0.4300754
C           4.8373980    -0.3437891    -1.7224996
H           4.8802274    -1.4366700    -1.6651455
H           5.8227999     0.0381006    -1.9890031
H           4.1206417    -0.0484947    -2.4944532
N           5.4663839     1.0453107     0.1451580
C           5.0103711     1.2873845     1.3692581
H           5.5837107     1.9246660     2.0307333
16
269_C5H8N2O_0-4-7-8 (-15,) energy =    -380.0227425
C           1.8815631    -0.9388564    -1.1157664
H           0.8687797    -1.3295622    -1.0002217
H           2.5076361    -1.7106235    -1.5764497
H           1.8507733    -0.0525015    -1.7613862
O           2.3111935    -0.6125895     0.1996862
C           3.7912774     0.6754376     1.6155538
H           3.1675390     0.7269375     2.4950877
C           3.4724547     0.0476198     0.4241102
N           4.5164029     0.2517732    -0.4397046
C           4.8173533    -0.3008435    -1.7509905
H           4.8948228    -1.3931174    -1.7207981
H           5.7856145     0.1142968    -2.0302001
H           4.0764419    -0.0085280    -2.4994122
N           5.5165767     0.9739727     0.1632111
C           5.0672367     1.2244667     1.3872280
H           5.6791626     1.8039982     2.0670378
16
269_C5H8N2O_0-4-7-8 (0,) energy =    -380.0220215
C           1.9943629    -1.2813143    -0.8951851
H           0.9171692    -1.4499025    -0.9479054
H           2.4632296    -2.1420575    -0.4040218
H           2.3866297    -1.1763570    -1.9129401
O           2.1492726    -0.0899764    -0.1370040
C           3.5417204     1.6123816     0.8573408
H           2.7619853     2.1966989     1.3219486
C           3.3620922     0.4603614     0.1107706
N           4.6021536     0.0285562    -0.2804138
C           5.0454152    -1.0757844    -1.1169433
H           4.7110568    -0.9640227    -2.1535396
H           4.7129537    -2.0415265    -0.7277255
H           6.1344383    -1.0414121    -1.0930665
N           5.5827321     0.8727028     0.1804307
C           4.9346684     1.8108632     0.8605247
H           5.4980934     2.6036366     1.3363940
16
269_C5H8N2O_0-4-7-8 (15,) energy =    -380.0227436
C           2.0109274    -1.3165499    -0.8363598
H           0.9341052    -1.4845724    -0.8991397
H           2.4485062    -2.0549195    -0.1531386
H           2.4456113    -1.4333342    -1.8350169
O           2.1567709     0.0070120    -0.3380383
C           3.5449415     1.6289595     0.8005999
H           2.7627982     2.2392453     1.2261376
C           3.3664636     0.5018417     0.0177320
N           4.6092500     0.0053423    -0.2771478
C           5.0488733    -1.0340516    -1.1947587
H           4.7595185    -0.8100640    -2.2274146
H           4.6651243    -2.0180185    -0.9140998
H           6.1366049    -1.0456770    -1.1273017
N           5.5927558     0.7923779     0.2699208
C           4.9425322     1.7533481     0.9152325
H           5.5067774     2.5050738     1.4528388
16
269_C5H8N2O_0-4-7-8 (30,) energy =    -380.0241127
C           1.9808406    -1.2887446    -0.7771471
H           0.9017781    -1.4393864    -0.8497819
H           2.3775934    -1.9074879     0.0370871
H           2.4429526    -1.5852167    -1.7246668
O           2.1565392     0.0995005    -0.5065169
C           3.5025301     1.6477242     0.8012898
H           2.7147124     2.2661962     1.2039220
C           3.3410792     0.5574045    -0.0345441
N           4.5847185     0.0356317    -0.2735587
C           5.0262078    -0.9813572    -1.2131488
H           4.6896287    -0.7548754    -2.2304655
H           4.6805426    -1.9800054    -0.9301866
H           6.1155904    -0.9622839    -1.1855296
N           5.5546941     0.7663025     0.3615724
C           4.8945670     1.7240178     1.0034302
H           5.4470946     2.4369071     1.6025105
16
269_C5H8N2O_0-4-7-8 (45,) energy =    -380.0257443
C           1.9784858    -1.2760656    -0.7381892
H           0.9046051    -1.3866920    -0.9032374
H           2.2527815    -1.7569589     0.2086059
H           2.5138640    -1.7582693    -1.5627266
O           2.2225294     0.1310837    -0.6903022
C           3.5009652     1.6211874     0.7747615
H           2.7034295     2.2344372     1.1661227
C           3.3686015     0.5722493    -0.1166192
N           4.6168852     0.0506815    -0.3228829
C           5.0605352    -0.9546458    -1.2711089
H           4.6269538    -0.7716325    -2.2592520
H           4.8039204    -1.9682930    -0.9444800
H           6.1452884    -0.8659018    -1.3316505
N           5.5625698     0.7319981     0.3900262
C           4.8836592     1.6699863     1.0442094
H           5.4163878     2.3494565     1.6975067
16
269_C5H8N2O_0-4-7-8 (60,) energy =    -380.0275948
C           1.9155024    -1.2349049    -0.6388440
H           0.9226149    -1.3441859    -1.0796659
H           1.8772637    -1.4991104     0.4248628
H           2.6107250    -1.9057511    -1.1547452
O           2.2682639     0.1429344    -0.8067346
C           3.4747222     1.5708548     0.8044870
H           2.6674112     2.1709212     1.1963779
C           3.3738453     0.5753078    -0.1496083
N           4.6283885     0.0646583    -0.3402701
C           5.0756340    -0.9114539    -1.3146575
H           4.4843981    -0.8180546    -2.2294826
H           4.9956344    -1.9359145    -0.9319665
H           6.1221471    -0.6973995    -1.5348258
N           5.5477505     0.6959649     0.4406283
C           4.8478492     1.5988044     1.1246272
H           5.3597488     2.2405448     1.8305261
16
269_C5H8N2O_0-4-7-8 (75,) energy =    -380.0292603
C           1.8675460    -1.2038421    -0.5860267
H           0.9848962    -1.3750896    -1.2054347
H           1.5902023    -1.2433973     0.4740568
H           2.6123239    -1.9814031    -0.7935145
O           2.3495096     0.1008763    -0.9344707
C           3.4646761     1.4945923     0.7951067
H           2.6397643     2.0675849     1.1911056
C           3.4070938     0.5427268    -0.2061967
N           4.6766439     0.0725063    -0.3941754
C           5.1371670    -0.8911553    -1.3728701
H           4.4401704    -0.9049760    -2.2138497
H           5.2118794    -1.8969134    -0.9425836
H           6.1241914    -0.5812311    -1.7204813
N           5.5643100     0.6797795     0.4342129
C           4.8303088     1.5348949     1.1459893
H           5.3141964     2.1553329     1.8896227
16
269_C5H8N2O_0-4-7-8 (90,) energy =    -380.0301597
C           1.7804583    -1.1545905    -0.5330293
H           0.9719239    -1.3766997    -1.2324232
H           1.3685231    -0.9844430     0.4684805
H           2.4773820    -2.0012873    -0.4970161
O           2.4226053     0.0289567    -1.0271736
C           3.4449103     1.4094057     0.7848879
H           2.5966451     1.9436423     1.1859983
C           3.4365392     0.4919603    -0.2505602
N           4.7246114     0.0773259    -0.4366056
C           5.2220681    -0.8598347    -1.4226356
H           4.4461337    -1.0155238    -2.1743822
H           5.4834682    -1.8171286    -0.9582803
H           6.1129264    -0.4407908    -1.8959111
N           5.5779521     0.6856765     0.4233085
C           4.8031166     1.4851281     1.1575032
H           5.2540086     2.0958290     1.9294164
16
269_C5H8N2O_0-4-7-8 (105,) energy =    -380.0307146
C           1.7067200    -1.1101881    -0.4896278
H           0.9822911    -1.4046269    -1.2517167
H           1.1793489    -0.7295165     0.3926353
H           2.3132937    -1.9774658    -0.2008284
O           2.5179299    -0.0879115    -1.0837501
C           3.4400821     1.2988920     0.7867428
H           2.5644736     1.7809845     1.1953592
C           3.4877985     0.4105961    -0.2739056
N           4.7953415     0.0640235    -0.4555080
C           5.3482172    -0.8180670    -1.4629016
H           4.5401726    -1.1286340    -2.1268342
H           5.8021637    -1.6966491    -0.9938416
H           6.1122027    -0.2881934    -2.0382032
N           5.6103697     0.6950615     0.4251206
C           4.7894118     1.4316800     1.1745140
H           5.2016725     2.0425439     1.9676353
16
269_C5H8N2O_0-4-7-8 (120,) energy =    -380.0313518
C           1.5891004    -1.0384123    -0.4808413
H           0.9488427    -1.4313966    -1.2732096
H           0.9842852    -0.4468044     0.2161193
H           2.0608915    -1.8660752     0.0621986
O           2.5726346    -0.2253256    -1.1314529
C           3.4217487     1.1770956     0.7707159
H           2.5286390     1.6140265     1.1919510
C           3.5079483     0.3112436    -0.3069648
N           4.8269228     0.0187513    -0.4900443
C           5.4182098    -0.8074474    -1.5227158
H           4.6133282    -1.2847441    -2.0830392
H           6.0572302    -1.5676615    -1.0653557
H           6.0217184    -0.1959242    -2.2006785
N           5.6162547     0.6729215     0.3995662
C           4.7648836     1.3586797     1.1616948
H           5.1496116     1.9702682     1.9680487
16
269_C5H8N2O_0-4-7-8 (135,) energy =    -380.0322924
C           1.4986965    -0.9428329    -0.4343698
H           0.9356791    -1.4596263    -1.2139990
H           0.8609090    -0.1779765     0.0245414
H           1.8189574    -1.6568903     0.3332235
O           2.6268429    -0.3526968    -1.0855746
C           3.4048121     1.0784807     0.8318566
H           2.4961854     1.4586295     1.2739976
C           3.5273871     0.2339077    -0.2597407
N           4.8557681     0.0073026    -0.4548305
C           5.4772714    -0.7598494    -1.5146920
H           4.7252126    -1.4149617    -1.9567601
H           6.2900433    -1.3540678    -1.0912967
H           5.8827212    -0.1002161    -2.2896727
N           5.6202341     0.6945269     0.4353414
C           4.7417941     1.3246867     1.2123552
H           5.1005657     1.9415775     2.0266098
16
269_C5H8N2O_0-4-7-8 (150,) energy =    -380.0334509
C           1.4327985    -0.8708024    -0.4613434
H           0.9020588    -1.4781663    -1.1966817
H           0.8331658     0.0168368    -0.2248504
H           1.6014494    -1.4498719     0.4540979
O           2.6721734    -0.5061457    -1.0683083
C           3.4022182     0.9512232     0.8512038
H           2.4859115     1.2727162     1.3226038
C           3.5474757     0.1280063    -0.2541217
N           4.8794783    -0.0276459    -0.4797415
C           5.5129783    -0.7409866    -1.5693123
H           4.8697206    -1.5679729    -1.8762842
H           6.4703139    -1.1237983    -1.2119537
H           5.6867371    -0.0838491    -2.4293360
N           5.6271242     0.6895864     0.4049792
C           4.7338556     1.2626791     1.2066676
H           5.0761398     1.8860009     2.0231231
16
269_C5H8N2O_0-4-7-8 (165,) energy =    -380.0344167
C           1.4061974    -0.8303997    -0.4622545
H           0.8698080    -1.4733623    -1.1618647
H           0.8948593     0.1375726    -0.3896334
H           1.4387077    -1.2994194     0.5285499
O           2.7194565    -0.6745245    -0.9935979
C           3.4084980     0.8538117     0.8859237
H           2.4900021     1.1197980     1.3862211
C           3.5725917     0.0279557    -0.2150324
N           4.9021038    -0.0382893    -0.4881686
C           5.5450311    -0.7249671    -1.5889761
H           4.9480920    -1.5964508    -1.8650482
H           6.5358527    -1.0411631    -1.2585856
H           5.6490908    -0.0702347    -2.4621248
N           5.6307415     0.7333089     0.3683088
C           4.7287260     1.2564494     1.1926319
H           5.0553834     1.9092252     1.9923121
16
269_C5H8N2O_0-4-7-8 (180,) energy =    -380.0347138
C           1.3923049    -0.7886809    -0.4746544
H           0.8521190    -1.4450941    -1.1584729
H           0.9888274     0.2292341    -0.5417351
H           1.2848835    -1.1551152     0.5538126
O           2.7553199    -0.8215616    -0.8866253
C           3.4209159     0.7820332     0.9384598
H           2.5095662     0.9980596     1.4744444
C           3.5920978    -0.0544495    -0.1534366
N           4.9084841    -0.0354728    -0.4877705
C           5.5462620    -0.6995938    -1.6054017
H           5.0135373    -1.6266677    -1.8265976
H           6.5764317    -0.9213133    -1.3222215
H           5.5475185    -0.0647974    -2.4993446
N           5.6236388     0.7897491     0.3300713
C           4.7252636     1.2711027     1.1828664
H           5.0429921     1.9563597     1.9586042
