15
166_C5H8O2_10-0-1-2 (-165,) energy =    -345.7704885
O           1.3509642    -0.7788087    -0.5028103
C           2.5491921    -1.3354890    -0.1797545
C           3.5823368    -0.2613561     0.0668932
H           3.4114172     0.1694041     1.0602819
H           3.4982336     0.5477300    -0.6637671
H           4.5808826    -0.6998075     0.0380994
O           2.7220297    -2.5236607    -0.0322091
C          -0.4365210    -2.0408545    -1.7244206
H          -0.8706049    -3.0345324    -1.7912081
H           0.0175695    -1.6796375    -2.6423402
C           0.2212436    -1.6403324    -0.4374950
H           0.2767047    -2.3546121     0.3767087
C          -1.0790154    -1.0082810    -0.8158638
H          -1.0459996     0.0280481    -1.1391532
H          -1.9656298    -1.2784683    -0.2491214
15
166_C5H8O2_10-0-1-2 (-150,) energy =    -345.7670934
O           1.3888284    -0.8116792    -0.6709719
C           2.5851329    -1.3567094    -0.3101042
C           3.5483882    -0.2816773     0.1344680
H           3.2733855     0.0193243     1.1521106
H           3.4841048     0.6059460    -0.5009729
H           4.5666476    -0.6734944     0.1427654
O           2.7852113    -2.5468565    -0.2378303
C          -0.5087926    -2.1117001    -1.6789760
H          -0.9750278    -3.0921381    -1.6372910
H          -0.1039851    -1.8407369    -2.6493844
C           0.2427535    -1.6314141    -0.4735802
H           0.3314114    -2.2814116     0.3908085
C          -1.0621568    -0.9896058    -0.8189530
H          -1.0213285     0.0169237    -1.2249055
H          -1.9168869    -1.1855416    -0.1774859
15
166_C5H8O2_10-0-1-2 (-135,) energy =    -345.7620281
O           1.3677643    -0.6847936    -0.7112466
C           2.5954346    -1.2717854    -0.5353794
C           3.5324848    -0.3454966     0.2021298
H           3.2251434    -0.3279188     1.2545917
H           3.4641632     0.6793956    -0.1741173
H           4.5579824    -0.7115837     0.1330495
O           2.8329063    -2.4201287    -0.8204350
C          -0.4637942    -2.1995909    -1.5572773
H          -0.8991704    -3.1765316    -1.3665529
H          -0.0397399    -2.0769393    -2.5487248
C           0.2427982    -1.5061568    -0.4312655
H           0.3141251    -2.0015942     0.5338903
C          -1.0732385    -0.9747708    -0.9014222
H          -1.0520096    -0.0442453    -1.4610444
H          -1.9362122    -1.0937603    -0.2522692
15
166_C5H8O2_10-0-1-2 (-120,) energy =    -345.7575399
O           1.3180752    -0.5133210    -0.6716882
C           2.5629877    -1.1091379    -0.7403718
C           3.5194512    -0.4941688     0.2512234
H           3.1932728    -0.7663299     1.2623276
H           3.4943651     0.5984616     0.1899216
H           4.5325097    -0.8620748     0.0818567
O           2.8137734    -2.0315044    -1.4736241
C          -0.3488674    -2.2850463    -1.3734846
H          -0.7404656    -3.2393581    -1.0318077
H           0.1533654    -2.3170497    -2.3334209
C           0.2209500    -1.3506891    -0.3452703
H           0.2249833    -1.6509284     0.7015401
C          -1.0826677    -1.0137176    -0.9988020
H          -1.0680037    -0.1978441    -1.7152510
H          -1.9875229    -1.0784240    -0.4011619
15
166_C5H8O2_10-0-1-2 (-105,) energy =    -345.7546903
O           1.2909064    -0.4015256    -0.7407303
C           2.5408821    -0.9853786    -0.8669052
C           3.4611379    -0.6142282     0.2690532
H           3.0580805    -1.0198985     1.2050331
H           3.4996840     0.4741386     0.3840301
H           4.4621748    -1.0121107     0.0961091
O           2.8282562    -1.6966328    -1.7948518
C          -0.2674789    -2.3251453    -1.2492811
H          -0.6144934    -3.2536924    -0.8039730
H           0.2547725    -2.4366591    -2.1927265
C           0.2294309    -1.2456463    -0.3285915
H           0.2242274    -1.4227716     0.7466127
C          -1.0766502    -1.0622449    -1.0354504
H          -1.0897221    -0.3365568    -1.8429012
H          -1.9891576    -1.1089527    -0.4478490
15
166_C5H8O2_10-0-1-2 (-90,) energy =    -345.7534568
O           1.2781933    -0.3210431    -0.8656084
C           2.5394088    -0.8915275    -0.9641898
C           3.3770161    -0.6982692     0.2759089
H           2.8746044    -1.1432992     1.1429001
H           3.4818001     0.3725725     0.4826623
H           4.3607356    -1.1516533     0.1458991
O           2.9071796    -1.4271656    -1.9765756
C          -0.2153006    -2.3230964    -1.1652656
H          -0.5194571    -3.2272439    -0.6448544
H           0.2894014    -2.4855072    -2.1119150
C           0.2586065    -1.1553691    -0.3440773
H           0.2813106    -1.2448298     0.7420745
C          -1.0671293    -1.0767727    -1.0323481
H          -1.1248076    -0.4189226    -1.8938808
H          -1.9644351    -1.1122781    -0.4210426
15
166_C5H8O2_10-0-1-2 (-75,) energy =    -345.7538845
O           1.2796493    -0.2787178    -0.9844718
C           2.5588760    -0.8053426    -1.0501479
C           3.3071958    -0.7827036     0.2623273
H           2.7570237    -1.3243288     1.0398177
H           3.4038181     0.2557548     0.5988725
H           4.2966145    -1.2245923     0.1373345
O           3.0297051    -1.1388357    -2.1055732
C          -0.1654034    -2.3287955    -1.0724502
H          -0.4412382    -3.1909857    -0.4713503
H           0.3241808    -2.5624945    -2.0128091
C           0.2915006    -1.0822606    -0.3642597
H           0.3286430    -1.0743557     0.7248319
C          -1.0443874    -1.0945252    -1.0361459
H          -1.1278902    -0.5177216    -1.9518231
H          -1.9330173    -1.0967806    -0.4113926
15
166_C5H8O2_10-0-1-2 (-60,) energy =    -345.7557225
O           1.2707683    -0.2400131    -1.0898214
C           2.5677313    -0.7097950    -1.1277150
C           3.2368170    -0.8668395     0.2204530
H           2.7040148    -1.5849742     0.8530990
H           3.2263248     0.0982748     0.7393831
H           4.2655700    -1.2006427     0.0805900
O           3.1270701    -0.8394324    -2.1853415
C          -0.1221572    -2.3250470    -0.9609612
H          -0.3740940    -3.1295654    -0.2753311
H           0.3617931    -2.6419379    -1.8800223
C           0.3095194    -1.0042233    -0.3833042
H           0.3503053    -0.8874230     0.6988628
C          -1.0292768    -1.1132793    -1.0401129
H          -1.1304479    -0.6328827    -2.0081554
H          -1.9146723    -1.0741053    -0.4121122
15
166_C5H8O2_10-0-1-2 (-45,) energy =    -345.7582716
O           1.2741061    -0.2448480    -1.1953632
C           2.5891600    -0.6466693    -1.1675633
C           3.1631646    -0.9526846     0.2004151
H           2.6794919    -1.8247901     0.6535592
H           2.9995371    -0.0994921     0.8682115
H           4.2318329    -1.1451664     0.1012564
O           3.2361169    -0.6143943    -2.1826350
C          -0.1028223    -2.3207573    -0.8745937
H          -0.3461315    -3.0644913    -0.1205578
H           0.3732672    -2.7143679    -1.7679235
C           0.3268685    -0.9532292    -0.4161943
H           0.3770362    -0.7438276     0.6510996
C          -1.0163600    -1.1236777    -1.0495585
H          -1.1280333    -0.7285206    -2.0543466
H          -1.8970231    -1.0351661    -0.4200227
15
166_C5H8O2_10-0-1-2 (-30,) energy =    -345.7605002
O           1.2841226    -0.2687906    -1.2860342
C           2.6159950    -0.5802514    -1.1891709
C           3.1197551    -1.0202010     0.1706758
H           2.6649674    -1.9670976     0.4803399
H           2.8686412    -0.2694318     0.9285464
H           4.2022428    -1.1383149     0.1175337
O           3.3264016    -0.4005864    -2.1457188
C          -0.0876430    -2.3151721    -0.7940660
H          -0.3243825    -2.9995872     0.0162154
H           0.3792121    -2.7761368    -1.6597158
C           0.3477461    -0.9171699    -0.4454135
H           0.4092036    -0.6277485     0.6019069
C          -1.0015864    -1.1333230    -1.0507098
H          -1.1230330    -0.8154345    -2.0815250
H          -1.8761322    -0.9956200    -0.4215724
15
166_C5H8O2_10-0-1-2 (-15,) energy =    -345.7618419
O           1.0472968    -1.2174650     0.6651435
C           2.3653018    -0.8477539     0.7093316
C           3.2494161    -1.2702722    -0.4467034
H           2.8883344    -0.8660844    -1.3977712
H           3.2664847    -2.3624785    -0.5387199
H           4.2599463    -0.9097326    -0.2537442
O           2.7651255    -0.2586870     1.6820721
C          -0.0267212    -0.6686162    -1.5407315
H           0.0412230    -0.9107148    -2.5980697
H           0.1288415     0.3794373    -1.3014183
C           0.4702813    -1.6790721    -0.5413605
H           0.8771956    -2.6222157    -0.8998345
C          -0.9992370    -1.4382159    -0.6697297
H          -1.4712881    -0.8975707     0.1447622
H          -1.6106789    -2.2148200    -1.1198279
15
166_C5H8O2_10-0-1-2 (0,) energy =    -345.7621480
O           1.0345196    -1.1587095     0.6657336
C           2.3781267    -0.9084726     0.7423868
C           3.2239649    -1.2148788    -0.4774967
H           2.8503327    -0.6922298    -1.3633964
H           3.2149941    -2.2877229    -0.7021875
H           4.2473721    -0.9041313    -0.2666180
O           2.8206637    -0.4639407     1.7720050
C           0.0029088    -0.7331198    -1.5882501
H           0.0773162    -1.0472458    -2.6259778
H           0.1820221     0.3245013    -1.4169825
C           0.4622567    -1.6855967    -0.5157940
H           0.8501299    -2.6605424    -0.8025282
C          -0.9988331    -1.4182804    -0.6807707
H          -1.4677500    -0.8128650     0.0887789
H          -1.6237630    -2.2087936    -1.0858969
15
166_C5H8O2_10-0-1-2 (15,) energy =    -345.7614361
O           1.0330577    -1.1034332     0.6710123
C           2.3923247    -0.9654416     0.7694449
C           3.2104208    -1.1335217    -0.4957786
H           2.8538267    -0.4606876    -1.2818436
H           3.1434002    -2.1547553    -0.8872046
H           4.2508244    -0.9106174    -0.2583476
O           2.8633178    -0.6728871     1.8397936
C           0.0370018    -0.8130063    -1.6248360
H           0.1109677    -1.2088989    -2.6342676
H           0.2497874     0.2483805    -1.5347546
C           0.4526343    -1.6942348    -0.4760536
H           0.8068115    -2.7020825    -0.6812083
C          -0.9963965    -1.3899844    -0.6789910
H          -1.4507209    -0.7106002     0.0357253
H          -1.6454153    -2.1880515    -1.0275108
15
166_C5H8O2_10-0-1-2 (30,) energy =    -345.7597917
O           1.0180008    -1.0535306     0.6646135
C           2.3845358    -1.0331042     0.7848884
C           3.1940392    -1.0541819    -0.4968656
H           2.8783262    -0.2392925    -1.1561188
H           3.0608356    -1.9890667    -1.0516302
H           4.2468229    -0.9373491    -0.2385766
O           2.8666292    -0.9061442     1.8817574
C           0.0435973    -0.8995542    -1.6594080
H           0.1082423    -1.3749122    -2.6346480
H           0.2932217     0.1574494    -1.6511167
C           0.4204283    -1.7031445    -0.4419540
H           0.7377095    -2.7363596    -0.5660947
C          -1.0150113    -1.3631719    -0.6794635
H          -1.4479238    -0.6140350    -0.0234775
H          -1.6915204    -2.1619891    -0.9690714
15
166_C5H8O2_10-0-1-2 (45,) energy =    -345.7573570
O           1.0617562    -0.9887577     0.6239958
C           2.4294707    -1.0689990     0.7416372
C           3.2282716    -0.9392184    -0.5397492
H           3.0044668     0.0266778    -1.0059109
H           2.9756992    -1.7154149    -1.2685716
H           4.2903995    -0.9940938    -0.2991610
O           2.9212120    -1.1038585     1.8403015
C           0.0601791    -1.0024760    -1.6966062
H           0.0885824    -1.5668480    -2.6250556
H           0.3547905     0.0387323    -1.7880454
C           0.4207854    -1.7076774    -0.4142353
H           0.6953015    -2.7601016    -0.4464333
C          -1.0022558    -1.3299001    -0.6664226
H          -1.3939645    -0.5068615    -0.0763531
H          -1.7158171    -2.1217257    -0.8749628
15
166_C5H8O2_10-0-1-2 (60,) energy =    -345.7547348
O           1.0165112    -0.9818507     0.6280148
C           2.3822062    -1.1449815     0.7556993
C           3.2010557    -0.8190814    -0.4751580
H           3.0378798     0.2318826    -0.7393876
H           2.8993572    -1.4200115    -1.3383779
H           4.2575017    -0.9832997    -0.2598595
O           2.8516311    -1.3955993     1.8348232
C           0.0573359    -1.1417557    -1.7105096
H           0.0614474    -1.7944673    -2.5797137
H           0.4251790    -0.1368844    -1.8948602
C           0.3430585    -1.7436154    -0.3574440
H           0.5410988    -2.8113442    -0.2848173
C          -1.0440400    -1.2939147    -0.6804243
H          -1.3865931    -0.3922131    -0.1817519
H          -1.8087602    -2.0505880    -0.8297568
15
166_C5H8O2_10-0-1-2 (75,) energy =    -345.7528100
O           1.0269500    -0.9620476     0.5961535
C           2.3881811    -1.2064907     0.7029238
C           3.2149570    -0.6920836    -0.4527686
H           3.0988510     0.3959801    -0.5159542
H           2.8679493    -1.1104076    -1.4026808
H           4.2654801    -0.9410681    -0.2967345
O           2.8395587    -1.6918364     1.7061661
C           0.0559717    -1.2753179    -1.7240318
H           0.0140468    -2.0092422    -2.5247129
H           0.4894334    -0.3201126    -2.0046004
C           0.2970635    -1.7607452    -0.3156315
H           0.4183245    -2.8284236    -0.1408664
C          -1.0537655    -1.2475121    -0.6912176
H          -1.3311122    -0.2783815    -0.2875778
H          -1.8709047    -1.9585797    -0.7709171
15
166_C5H8O2_10-0-1-2 (90,) energy =    -345.7525964
O           1.0619442    -0.9255452     0.5565430
C           2.4103863    -1.2525660     0.6311612
C           3.2564679    -0.5689945    -0.4144573
H           3.1201478     0.5161948    -0.3513103
H           2.9282039    -0.8780090    -1.4129198
H           4.3082990    -0.8228267    -0.2748225
O           2.8249314    -1.9855781     1.4893657
C           0.0550470    -1.3858463    -1.7172217
H          -0.0358629    -2.1855162    -2.4476115
H           0.5438638    -0.4880060    -2.0834740
C           0.2697502    -1.7559529    -0.2704924
H           0.3279688    -2.8091540    -0.0008375
C          -1.0465918    -1.1931382    -0.6917578
H          -1.2590099    -0.1746452    -0.3810497
H          -1.9085099    -1.8538759    -0.7072223
15
166_C5H8O2_10-0-1-2 (105,) energy =    -345.7546423
O           1.0645310    -0.9018896     0.4656925
C           2.3909419    -1.2998990     0.5280449
C           3.2846729    -0.4809705    -0.3685168
H           3.1249151     0.5890559    -0.2006838
H           3.0136054    -0.6887262    -1.4105412
H           4.3318026    -0.7392689    -0.2032140
O           2.7457376    -2.2269356     1.2086707
C          -0.0040079    -1.4975520    -1.7346363
H          -0.1458917    -2.3479037    -2.3962366
H           0.5274746    -0.6599318    -2.1767767
C           0.2089471    -1.7613676    -0.2664786
H           0.2237238    -2.7891993     0.0897089
C          -1.0809377    -1.1634570    -0.7177397
H          -1.2348117    -0.1128761    -0.4906609
H          -1.9771986    -1.7753779    -0.6723840
15
166_C5H8O2_10-0-1-2 (120,) energy =    -345.7585422
O           1.0898868    -0.8633364     0.3474235
C           2.3912176    -1.3108631     0.4392397
C           3.3486546    -0.4005162    -0.2873485
H           3.1519254     0.6501593    -0.0533951
H           3.1817851    -0.5309476    -1.3636339
H           4.3807951    -0.6594826    -0.0459765
O           2.6834383    -2.3520497     0.9716919
C          -0.0841068    -1.5914464    -1.7427830
H          -0.2748960    -2.4823840    -2.3348841
H           0.4583541    -0.8063768    -2.2616333
C           0.1759642    -1.7560550    -0.2700412
H           0.1824734    -2.7522856     0.1635264
C          -1.1121652    -1.1501244    -0.7154816
H          -1.2271629    -0.0814273    -0.5615514
H          -2.0237106    -1.7282212    -0.5938867
15
166_C5H8O2_10-0-1-2 (135,) energy =    -345.7633126
O           1.1427216    -0.8402401     0.2013569
C           2.4147733    -1.3341002     0.3348530
C           3.4362818    -0.3619359    -0.2013582
H           3.2052377     0.6659726     0.0926812
H           3.3959052    -0.4074103    -1.2964186
H           4.4369654    -0.6405117     0.1327674
O           2.6536647    -2.4468407     0.7378626
C          -0.1641930    -1.6692894    -1.7592849
H          -0.4098105    -2.5904107    -2.2806386
H           0.3756044    -0.9380554    -2.3539955
C           0.1687153    -1.7476004    -0.2961170
H           0.1774091    -2.7111833     0.2028652
C          -1.1238923    -1.1297549    -0.7127493
H          -1.2007578    -0.0501354    -0.6251164
H          -2.0438340    -1.6694000    -0.5066815
15
166_C5H8O2_10-0-1-2 (150,) energy =    -345.7677243
O           1.1806492    -0.8213959     0.0611585
C           2.4312209    -1.3441047     0.2176697
C           3.4867887    -0.3162346    -0.1113524
H           3.2198093     0.6709704     0.2760243
H           3.5544118    -0.2360328    -1.2028316
H           4.4532551    -0.6338959     0.2828684
O           2.6444308    -2.5005820     0.4975456
C          -0.2486202    -1.7552126    -1.7589214
H          -0.5469443    -2.7047036    -2.1947296
H           0.2835498    -1.0907958    -2.4334537
C           0.1578543    -1.7359805    -0.3138756
H           0.1727617    -2.6591458     0.2546610
C          -1.1368167    -1.1081940    -0.7107187
H          -1.1786881    -0.0230828    -0.7002478
H          -2.0597745    -1.6014399    -0.4193834
15
166_C5H8O2_10-0-1-2 (165,) energy =    -345.7706859
O           1.2300928    -0.8046959    -0.1002003
C           2.4658705    -1.3490745     0.0665979
C           3.5336325    -0.2872466    -0.0502342
H           3.2351423     0.6333177     0.4587525
H           3.6780133    -0.0482088    -1.1103832
H           4.4719216    -0.6636510     0.3596570
O           2.6649504    -2.5304290     0.2336589
C          -0.3212935    -1.8488090    -1.7561736
H          -0.6659818    -2.8230208    -2.0914314
H           0.1898616    -1.2612906    -2.5132657
C           0.1676987    -1.7184286    -0.3437438
H           0.1945129    -2.5921284     0.2974703
C          -1.1322569    -1.0884606    -0.7220695
H          -1.1483781    -0.0056071    -0.8034135
H          -2.0480787    -1.5284283    -0.3376264
15
166_C5H8O2_10-0-1-2 (180,) energy =    -345.7716024
O           1.3067896    -0.7544050    -0.3115689
C           2.5283729    -1.3048642    -0.0803012
C           3.5866351    -0.2285138    -0.0135795
H           3.3660229     0.4647033     0.8050115
H           3.5942117     0.3538061    -0.9407111
H           4.5621418    -0.6891093     0.1451906
O           2.7171877    -2.4907625     0.0658896
C          -0.3468211    -1.9515982    -1.7577897
H          -0.7298452    -2.9493449    -1.9526777
H           0.1410669    -1.4773166    -2.6042235
C           0.2154827    -1.6623113    -0.3977571
H           0.2558282    -2.4527506     0.3433248
C          -1.0879402    -1.0466628    -0.7897762
H          -1.0845205     0.0181573    -1.0034513
H          -1.9926410    -1.4104722    -0.3109112
