22
354_C9H11NO_0-6-18-16 (-165,) energy =    -479.5414182
C           1.0572758    -0.9517641     0.6117534
H           0.3188896    -0.4769827     1.2647497
H           1.8934792    -1.2894385     1.2282042
C           0.4715331    -2.1185874    -0.2050179
H          -0.5787009    -1.9335545    -0.4587467
H           0.5346850    -3.0787905     0.3172119
C           1.5777914     0.0261210    -0.4672433
H           0.9293145     0.9055139    -0.5659357
O           1.4893009    -0.6695597    -1.7328263
C           1.3277553    -2.0633560    -1.4698432
H           2.3037821    -2.5479076    -1.3071298
H           0.8599947    -2.5104583    -2.3525470
C           5.6344317     1.2977563    -0.0440360
H           6.6770546     1.5727216     0.0847423
C           4.7887741     2.0212928    -0.8862097
H           5.1579275     2.8816345    -1.4383628
C           3.4619062     1.6205600    -1.0050098
H           2.7734796     2.1520719    -1.6558545
C           3.0139427     0.5090154    -0.2769001
N           3.8264035    -0.1875487     0.5293786
C           5.1023026     0.2045938     0.6367866
H           5.7275213    -0.3876124     1.3036073
22
354_C9H11NO_0-6-18-16 (-150,) energy =    -479.5419749
C           1.0319126    -0.8965329     0.5471575
H           0.3010868    -0.3476450     1.1488450
H           1.8434341    -1.2237151     1.2019754
C           0.4238905    -2.0977021    -0.1970557
H          -0.5989773    -1.8801234    -0.5263162
H           0.4037556    -3.0096159     0.4085212
C           1.6120074    -0.0229257    -0.5894455
H           0.9650798     0.8359029    -0.8090494
O           1.6091304    -0.8434031    -1.7797528
C           1.3515539    -2.1979330    -1.4073702
H           2.2877708    -2.7143902    -1.1449873
H           0.9078474    -2.6973279    -2.2746537
C           5.6331909     1.2920809    -0.0332868
H           6.6717956     1.5680043     0.1228815
C           4.7580645     2.1176399    -0.7375791
H           5.0977387     3.0632089    -1.1521461
C           3.4373263     1.7063034    -0.9015016
H           2.7272507     2.3180486    -1.4509147
C           3.0278891     0.4855662    -0.3513973
N           3.8697692    -0.3102323     0.3261481
C           5.1364622     0.0909375     0.4742075
H           5.7875948    -0.5824619     1.0300813
22
354_C9H11NO_0-6-18-16 (-135,) energy =    -479.5423444
C           1.0104370    -0.8123780     0.4953405
H           0.2674600    -0.2042747     1.0202273
H           1.7957021    -1.0872690     1.2047152
C           0.4145846    -2.0726916    -0.1552015
H          -0.5964714    -1.8791199    -0.5322304
H           0.3691882    -2.9254908     0.5298939
C           1.6370573    -0.0516069    -0.7007660
H           1.0070298     0.7913314    -1.0124782
O           1.6602007    -0.9747271    -1.8067379
C           1.3769706    -2.2887123    -1.3230936
H           2.3000124    -2.7842122    -0.9877049
H           0.9521041    -2.8595004    -2.1550311
C           5.6284634     1.2848187    -0.0190547
H           6.6611870     1.5623076     0.1697745
C           4.7260886     2.1816581    -0.5863737
H           5.0369129     3.1873110    -0.8573816
C           3.4140836     1.7628796    -0.8044348
H           2.6841417     2.4298979    -1.2545822
C           3.0436670     0.4642584    -0.4406102
N           3.9113653    -0.4004983     0.1111138
C           5.1678514     0.0072695     0.3074912
H           5.8424892    -0.7226932     0.7531573
22
354_C9H11NO_0-6-18-16 (-120,) energy =    -479.5421905
C           1.0069962    -0.7367982     0.4375606
H           0.2754353    -0.0675516     0.9002014
H           1.7723416    -0.9758518     1.1820269
C           0.3883021    -2.0294533    -0.1207161
H          -0.6070340    -1.8382533    -0.5385741
H           0.3000626    -2.8200042     0.6315546
C           1.6743037    -0.0947917    -0.8084894
H           1.0607083     0.7259958    -1.2029990
O           1.7097056    -1.1098621    -1.8229047
C           1.3715721    -2.3700236    -1.2413469
H           2.2705895    -2.8622865    -0.8434719
H           0.9466771    -2.9943234    -2.0339240
C           5.6239888     1.2912615    -0.0065991
H           6.6470796     1.5802113     0.2146666
C           4.6828861     2.2215380    -0.4405455
H           4.9520161     3.2666025    -0.5703527
C           3.3862200     1.7850804    -0.7125048
H           2.6279743     2.4786103    -1.0656145
C           3.0720254     0.4344494    -0.5353231
N           3.9745495    -0.4631790    -0.1046362
C           5.2152871    -0.0366726     0.1422224
H           5.9212689    -0.7932774     0.4825696
22
354_C9H11NO_0-6-18-16 (-105,) energy =    -479.5413677
C           0.9990894    -0.6569846     0.3689937
H           0.2691643     0.0627340     0.7511386
H           1.7370405    -0.8432056     1.1559006
C           0.3721342    -1.9829518    -0.0941591
H          -0.6086673    -1.8116357    -0.5528172
H           0.2505481    -2.7053405     0.7195146
C           1.7125822    -0.1384109    -0.9125945
H           1.1208111     0.6565979    -1.3867442
O           1.7539069    -1.2326958    -1.8315338
C           1.3772125    -2.4333737    -1.1558370
H           2.2575743    -2.9041956    -0.6955710
H           0.9598783    -3.1151140    -1.9036572
C           5.6179577     1.2953983     0.0093765
H           6.6300168     1.5968661     0.2624525
C           4.6310292     2.2323945    -0.2879044
H           4.8524631     3.2964525    -0.2736106
C           3.3525404     1.7791633    -0.6117962
H           2.5604793     2.4791636    -0.8643055
C           3.1026741     0.4032802    -0.6248734
N           4.0462048    -0.5029364    -0.3207596
C           5.2694329    -0.0570627    -0.0231759
H           6.0114528    -0.8202110     0.2087514
22
354_C9H11NO_0-6-18-16 (-90,) energy =    -479.5400384
C           2.0515998    -1.7960354    -0.8485743
H           2.4659361    -2.7888440    -0.6504556
H           2.5933086    -1.3702732    -1.6997143
C           0.5387775    -1.8079164    -1.1306548
H           0.0393682    -2.5858095    -0.5417749
H           0.3025988    -1.9708338    -2.1872153
C           2.1719475    -0.8550775     0.3900827
H           2.3586578    -1.4444472     1.2983187
O           0.9037491    -0.2279026     0.5565925
C           0.1263456    -0.4237249    -0.6242650
H           0.3526277     0.3568607    -1.3648079
H          -0.9279494    -0.3490345    -0.3405462
C           5.3344301     1.9399099    -0.2099140
H           6.1020720     2.6830001    -0.4041248
C           5.6248942     0.7488225     0.4541179
H           6.6344163     0.5338362     0.7949992
C           4.5936668    -0.1602046     0.6792466
H           4.7789284    -1.0928461     1.2061995
C           3.3026863     0.1509331     0.2341192
N           3.0228446     1.2853034    -0.4239845
C           4.0195375     2.1539336    -0.6255508
H           3.7528051     3.0686450    -1.1536579
22
354_C9H11NO_0-6-18-16 (-75,) energy =    -479.5384622
C           2.1341541    -1.9286263    -0.6756152
H           2.4706292    -2.9119390    -0.3344865
H           2.7834469    -1.6247130    -1.5030831
C           0.6558103    -1.9164700    -1.1116907
H           0.0785996    -2.6561457    -0.5457981
H           0.5246301    -2.1219337    -2.1789856
C           2.1770710    -0.8660918     0.4724812
H           2.3417430    -1.3583202     1.4405096
O           0.8878780    -0.2731643     0.5322463
C           0.2246720    -0.5033164    -0.7091318
H           0.5372521     0.2411238    -1.4559717
H          -0.8497263    -0.3974087    -0.5323440
C           5.2942119     1.9649352    -0.2274386
H           6.0483005     2.7187363    -0.4331498
C           5.6381229     0.7055349     0.2656758
H           6.6768023     0.4473219     0.4556077
C           4.6244209    -0.2149373     0.5133740
H           4.8541626    -1.2023822     0.9065299
C           3.2935208     0.1530360     0.2664545
N           2.9601850     1.3534958    -0.2232818
C           3.9447927     2.2315489    -0.4536149
H           3.6339707     3.1996150    -0.8446711
22
354_C9H11NO_0-6-18-16 (-60,) energy =    -479.5370722
C           2.0468627    -1.9777532    -0.4396586
H           2.2234955    -2.9350632     0.0591183
H           2.8220246    -1.8549670    -1.2023584
C           0.6357108    -1.8938517    -1.0628181
H          -0.0538988    -2.5718564    -0.5486675
H           0.6262223    -2.1418015    -2.1290181
C           2.0687679    -0.7819627     0.5716791
H           2.1901622    -1.1487826     1.5995085
O           0.7858184    -0.1798286     0.5145254
C           0.2420567    -0.4405542    -0.7765231
H           0.6684984     0.2473806    -1.5221193
H          -0.8369455    -0.2716876    -0.7194131
C           5.2348509     1.9768333    -0.2334197
H           6.0002461     2.7173219    -0.4456851
C           5.5638765     0.6551251     0.0725185
H           6.6017018     0.3333609     0.1045477
C           4.5370786    -0.2460810     0.3335634
H           4.7581587    -1.2825447     0.5766039
C           3.2071873     0.2023637     0.2929694
N           2.8873888     1.4657387    -0.0079150
C           3.8855752     2.3228159    -0.2620406
H           3.5840064     3.3415071    -0.5028627
22
354_C9H11NO_0-6-18-16 (-45,) energy =    -479.5359999
C           2.0393087    -1.9049918    -0.3766914
H           2.2643346    -2.8050964     0.2028033
H           2.7873753    -1.8274032    -1.1724042
C           0.6192819    -1.9216962    -0.9756004
H          -0.0674966    -2.4845706    -0.3339595
H           0.5856549    -2.3566742    -1.9796694
C           2.0436734    -0.6172394     0.5069336
H           2.0647970    -0.8854061     1.5727475
O           0.7945750     0.0300033     0.2904112
C           0.2556953    -0.4353872    -0.9424370
H           0.7005277     0.1029403    -1.7952041
H          -0.8194828    -0.2352192    -0.9281059
C           5.3665184     1.9938647    -0.1632710
H           6.1721727     2.7036151    -0.3260459
C           5.6098108     0.6237871    -0.0669030
H           6.6194553     0.2304054    -0.1536184
C           4.5333271    -0.2349175     0.1364058
H           4.6930005    -1.3067029     0.2163303
C           3.2409568     0.3021304     0.2475468
N           3.0052821     1.6168735     0.1614725
C           4.0483052     2.4309342    -0.0425867
H           3.8129179     3.4924529    -0.1110162
22
354_C9H11NO_0-6-18-16 (-30,) energy =    -479.5356031
C           2.0602823    -1.8759203    -0.4317734
H           2.4689315    -2.6847399     0.1816022
H           2.6815858    -1.7868149    -1.3308550
C           0.5937296    -2.0911627    -0.8295483
H           0.0214971    -2.5072784     0.0079138
H           0.4733883    -2.7553046    -1.6913498
C           2.0104145    -0.5257742     0.3197919
H           1.8756498    -0.7086521     1.3982868
O           0.8306104     0.1475341    -0.1383402
C           0.1552408    -0.6523840    -1.1076044
H           0.4401610    -0.3456636    -2.1273409
H          -0.9206300    -0.4863313    -0.9896937
C           5.4315701     2.0148769     0.0034866
H           6.2611099     2.7130717    -0.0578548
C           5.6251264     0.6403802    -0.1138422
H           6.6190055     0.2289946    -0.2705907
C           4.5184124    -0.2030912    -0.0316352
H           4.6433471    -1.2778823    -0.1197850
C           3.2477091     0.3548639     0.1670889
N           3.0617873     1.6763378     0.2996702
C           4.1299927     2.4742786     0.2108200
H           3.9346290     3.5408556     0.3168326
22
354_C9H11NO_0-6-18-16 (-15,) energy =    -479.5358850
C           2.3056826    -1.7828763    -0.3419355
H           2.7376112    -2.4293341     0.4287314
H           2.9347992    -1.8452463    -1.2365210
C           0.8450715    -2.1465500    -0.6841927
H           0.3606969    -2.6676411     0.1481516
H           0.7828196    -2.8003340    -1.5590335
C           2.1850138    -0.3137564     0.0927107
H           1.7927278    -0.2692091     1.1261181
O           1.2091009     0.2179454    -0.8039029
C           0.1820978    -0.7632078    -0.9298973
H          -0.2477104    -0.6562490    -1.9304593
H          -0.6143264    -0.5758665    -0.1931511
C           5.6203319     2.2085786     0.0279095
H           6.4509298     2.9082086     0.0267350
C           5.8236733     0.8369900    -0.0928289
H           6.8264526     0.4292406    -0.1905829
C           4.7153361    -0.0104343    -0.0887308
H           4.8474245    -1.0830782    -0.1831414
C           3.4363152     0.5437082     0.0374994
N           3.2389788     1.8648181     0.1793012
C           4.3070133     2.6652823     0.1625020
H           4.1044237     3.7301678     0.2710237
22
354_C9H11NO_0-6-18-16 (0,) energy =    -479.5364164
C           2.1582837    -1.9360239    -0.2815576
H           2.5418104    -2.5828547     0.5140679
H           2.8060098    -2.0428551    -1.1585856
C           0.6972887    -2.2421404    -0.6613533
H           0.1427907    -2.6179023     0.2052642
H           0.6209074    -2.9956486    -1.4508602
C           2.0726485    -0.4592720     0.1210748
H           1.6148059    -0.3759077     1.1225887
O           1.1840207     0.0988628    -0.8543310
C           0.1519131    -0.8577340    -1.1029784
H          -0.0848284    -0.8108156    -2.1712994
H          -0.7556261    -0.5914155    -0.5412915
C           5.5483554     2.0032780     0.2489991
H           6.3875321     2.6901502     0.3069152
C           5.7183251     0.6772732    -0.1377002
H           6.7030315     0.2933713    -0.3913271
C           4.6006362    -0.1563986    -0.1950330
H           4.7086120    -1.1935145    -0.4934126
C           3.3466709     0.3652370     0.1388486
N           3.1838373     1.6390743     0.5364407
C           4.2586154     2.4291470     0.5762802
H           4.0833532     3.4556480     0.8961022
22
354_C9H11NO_0-6-18-16 (15,) energy =    -479.5370024
C           2.1295975    -1.9524996    -0.1548348
H           2.4475529    -2.5313304     0.7181935
H           2.8236398    -2.1571598    -0.9767264
C           0.6863260    -2.2590586    -0.5964912
H           0.0680726    -2.5306335     0.2658746
H           0.6344144    -3.0863414    -1.3106077
C           2.0574127    -0.4448848     0.1125878
H           1.5406600    -0.2607287     1.0689602
O           1.2490792     0.0428964    -0.9687004
C           0.2135061    -0.9134122    -1.2078700
H           0.0612853    -0.9653416    -2.2914057
H          -0.7269934    -0.5764965    -0.7478681
C           5.5524826     1.9883007     0.2722208
H           6.3974630     2.6665219     0.3457485
C           5.6843852     0.7186541    -0.2835397
H           6.6440321     0.3727174    -0.6586749
C           4.5625696    -0.1076805    -0.3501353
H           4.6421139    -1.0999352    -0.7804142
C           3.3414669     0.3634025     0.1430840
N           3.2166169     1.5813657     0.6985731
C           4.2953326     2.3667791     0.7480080
H           4.1502019     3.3471875     1.1999322
22
354_C9H11NO_0-6-18-16 (30,) energy =    -479.5381277
C           1.8938692    -1.8769181    -0.1071226
H           2.1590035    -2.4101372     0.8113097
H           2.6078192    -2.1644260    -0.8866284
C           0.4593753    -2.1466482    -0.5819212
H          -0.2221768    -2.1809972     0.2758828
H           0.3534526    -3.0876052    -1.1306308
C           1.8679763    -0.3550129     0.0779050
H           1.3734484    -0.0985805     1.0261980
O           1.0652159     0.1209155    -1.0218985
C           0.1707367    -0.9115852    -1.4546665
H           0.3616453    -1.1108150    -2.5182412
H          -0.8658468    -0.5637209    -1.3573947
C           5.4807433     1.9080674     0.1241041
H           6.3654511     2.5351131     0.1831869
C           5.4607600     0.7483826    -0.6484809
H           6.3371955     0.4416410    -1.2134080
C           4.2970378    -0.0169686    -0.6831827
H           4.2560520    -0.9185247    -1.2850078
C           3.1839433     0.4021066     0.0552560
N           3.2062197     1.5116557     0.8125120
C           4.3262011     2.2415947     0.8325458
H           4.2998099     3.1357749     1.4538399
22
354_C9H11NO_0-6-18-16 (45,) energy =    -479.5399305
C           1.8707328    -1.8135685     0.0283281
H           2.0631218    -2.2500611     1.0134491
H           2.6556865    -2.1588156    -0.6537409
C           0.4833856    -2.1518857    -0.5329474
H          -0.2661204    -2.1159783     0.2661116
H           0.4316212    -3.1423489    -0.9957095
C           1.8211876    -0.2788240     0.0639570
H           1.2729053     0.0660121     0.9517259
O           1.0918385     0.0779403    -1.1277874
C           0.2562312    -1.0111095    -1.5400776
H           0.5455692    -1.3042557    -2.5589481
H          -0.7893430    -0.6787329    -1.5691316
C           5.5065488     1.8562309     0.1484680
H           6.4209622     2.4370278     0.2253222
C           5.3786858     0.8196912    -0.7766101
H           6.1970780     0.5684190    -1.4462903
C           4.1831645     0.1091888    -0.8264112
H           4.0473722    -0.6910616    -1.5468250
C           3.1455921     0.4602462     0.0472523
N           3.2676414     1.4516610     0.9433171
C           4.4219260     2.1289840     0.9804256
H           4.4795556     2.9287242     1.7174013
22
354_C9H11NO_0-6-18-16 (60,) energy =    -479.5418573
C           1.8455356    -1.7420777     0.1394502
H           1.9695068    -2.0759252     1.1741748
H           2.6876307    -2.1295052    -0.4460275
C           0.5086022    -2.1585444    -0.4868116
H          -0.2991794    -2.0610306     0.2477297
H           0.5034706    -3.1892025    -0.8550550
C           1.7799222    -0.2097726     0.0189149
H           1.1775635     0.2129569     0.8349582
O           1.1309328     0.0171451    -1.2455379
C           0.3441095    -1.1239316    -1.6131596
H           0.7149883    -1.5066193    -2.5742330
H          -0.6997768    -0.8160987    -1.7531431
C           5.5329621     1.7883438     0.1727649
H           6.4742380     2.3206020     0.2730733
C           5.3073702     0.9012614    -0.8814622
H           6.0747667     0.7231769    -1.6303562
C           4.0815732     0.2484247    -0.9570176
H           3.8583259    -0.4331902    -1.7716545
C           3.1135108     0.5086211     0.0222798
N           3.3250354     1.3575612     1.0384177
C           4.5106466     1.9785339     1.1004744
H           4.6446462     2.6636107     1.9363862
22
354_C9H11NO_0-6-18-16 (75,) energy =    -479.5433234
C           1.8113992    -1.6709086     0.2421858
H           1.8733157    -1.8971045     1.3105963
H           2.6874547    -2.1080402    -0.2520666
C           0.5143379    -2.1515090    -0.4206196
H          -0.3373925    -1.9835726     0.2486927
H           0.5285090    -3.2134138    -0.6852476
C           1.7582601    -0.1570762    -0.0361786
H           1.1152952     0.3392914     0.7045500
O           1.1794392    -0.0540274    -1.3456174
C           0.4239661    -1.2347784    -1.6520108
H           0.8615016    -1.7069772    -2.5426489
H          -0.6079200    -0.9508535    -1.8928703
C           5.5627694     1.7258223     0.1858975
H           6.5229378     2.2179769     0.3092206
C           5.2583865     1.0043635    -0.9697024
H           5.9812341     0.9193451    -1.7771090
C           4.0108243     0.3969478    -1.0724976
H           3.7206348    -0.1569764    -1.9589374
C           3.1032880     0.5371992    -0.0147142
N           3.3873942     1.2297185     1.0980432
C           4.5934666     1.8057253     1.1845467
H           4.7891726     2.3628616     2.0996811
22
354_C9H11NO_0-6-18-16 (90,) energy =    -479.5442403
C           1.7540342    -1.6100015     0.3229457
H           1.7469162    -1.7352153     1.4090384
H           2.6541073    -2.0963855    -0.0726861
C           0.4976592    -2.1403819    -0.3786632
H          -0.3960119    -1.9012429     0.2095866
H           0.5138425    -3.2225762    -0.5411991
C           1.7389143    -0.1270497    -0.0946863
H           1.0676242     0.4368444     0.5695148
O           1.2191016    -0.1257544    -1.4304980
C           0.5078615    -1.3439802    -1.6927874
H           1.0273949    -1.8911620    -2.4922524
H          -0.4995505    -1.0989796    -2.0501737
C           5.5761193     1.6760778     0.1930757
H           6.5467471     2.1410321     0.3382310
C           5.2065276     1.1300423    -1.0362391
H           5.8877828     1.1591114    -1.8828976
C           3.9470209     0.5494927    -1.1643725
H           3.6045586     0.1271226    -2.1022448
C           3.0965512     0.5412475    -0.0532214
N           3.4412237     1.0680084     1.1322686
C           4.6564893     1.6174213     1.2404119
H           4.9037520     2.0369411     2.2147322
22
354_C9H11NO_0-6-18-16 (105,) energy =    -479.5446038
C           1.6763322    -1.5383020     0.3989112
H           1.5817121    -1.5669367     1.4870653
H           2.5933789    -2.0723601     0.1218924
C           0.4703083    -2.1096629    -0.3567283
H          -0.4645601    -1.8010067     0.1259313
H           0.4735015    -3.2022437    -0.4213579
C           1.7273727    -0.0948256    -0.1402397
H           1.0469040     0.5383746     0.4491058
O           1.2505583    -0.1706378    -1.4892268
C           0.6155484    -1.4348040    -1.7264738
H           1.2438632    -2.0344948    -2.4016838
H          -0.3438307    -1.2556999    -2.2251038
C           5.6028896     1.6190407     0.1887693
H           6.5841948     2.0566079     0.3465429
C           5.1645544     1.2533022    -1.0832255
H           5.8009690     1.4008591    -1.9521834
C           3.8939643     0.6985345    -1.2263912
H           3.4995169     0.4084302    -2.1930803
C           3.1051451     0.5322869    -0.0840214
N           3.5150169     0.8876389     1.1446563
C           4.7382492     1.4142344     1.2650884
H           5.0402422     1.6908807     2.2744930
22
354_C9H11NO_0-6-18-16 (120,) energy =    -479.5444690
C           1.5778540    -1.4993675     0.4597271
H           1.3673329    -1.4369800     1.5295180
H           2.5146221    -2.0547641     0.3342556
C           0.4564166    -2.1400702    -0.3684554
H          -0.5256102    -1.8054963    -0.0134404
H           0.4716898    -3.2343427    -0.3480498
C           1.7009496    -0.1027853    -0.1871336
H           1.0258267     0.5985338     0.3267827
O           1.2489480    -0.2449846    -1.5409738
C           0.7419644    -1.5669183    -1.7591126
H           1.4927825    -2.1733014    -2.2894108
H          -0.1460513    -1.4900282    -2.3955391
C           5.6126704     1.5349948     0.1395241
H           6.6038972     1.9498588     0.2966751
C           5.0947694     1.3498082    -1.1413548
H           5.6767845     1.6206314    -2.0187564
C           3.8151510     0.8146696    -1.2825423
H           3.3625004     0.6556194    -2.2539953
C           3.1000169     0.4807021    -0.1287463
N           3.5867454     0.6622411     1.1100587
C           4.8159388     1.1748329     1.2275749
H           5.1815671     1.3065127     2.2452593
22
354_C9H11NO_0-6-18-16 (135,) energy =    -479.5440515
C           1.3706232    -1.3905420     0.5445905
H           0.9363377    -1.2467162     1.5364952
H           2.3282675    -1.9030651     0.6795476
C           0.4593325    -2.1698782    -0.4174711
H          -0.5935946    -1.9134518    -0.2522312
H           0.5659251    -3.2555811    -0.3265955
C           1.5870821    -0.0449379    -0.1940893
H           0.9304531     0.7282093     0.2301586
O           1.1653723    -0.2419376    -1.5528376
C           0.9187008    -1.6325211    -1.7729244
H           1.8370032    -2.1419811    -2.1080386
H           0.1699061    -1.7138404    -2.5668006
C           5.5551270     1.4622554     0.1554753
H           6.5607287     1.8401199     0.3146242
C           4.9620325     1.4775724    -1.1064282
H           5.4979860     1.8727388    -1.9657899
C           3.6681200     0.9804000    -1.2506302
H           3.1612299     0.9693815    -2.2084079
C           3.0146035     0.4758471    -0.1214024
N           3.5759604     0.4613677     1.0980711
C           4.8171658     0.9448215     1.2205533
H           5.2427345     0.9153774     2.2228868
22
354_C9H11NO_0-6-18-16 (150,) energy =    -479.5433825
C           1.2525060    -1.2574516     0.6288464
H           0.6269813    -1.0282309     1.4953837
H           2.1822794    -1.6898008     1.0064239
C           0.5517410    -2.1928207    -0.3774982
H          -0.5353557    -2.0592178    -0.3453481
H           0.7709312    -3.2507418    -0.2008269
C           1.5625428     0.0115890    -0.2099017
H           0.9484405     0.8589978     0.1235064
O           1.1493530    -0.2647241    -1.5568033
C           1.0934778    -1.6831850    -1.7140215
H           2.0961866    -2.0940059    -1.9176049
H           0.4505639    -1.8928277    -2.5737673
C           5.6043565     1.3578158     0.0416541
H           6.6296480     1.6925809     0.1683748
C           4.9099605     1.5702478    -1.1500018
H           5.3845329     2.0806135    -1.9843235
C           3.5968435     1.1195552    -1.2537774
H           3.0173129     1.2543489    -2.1600952
C           3.0219381     0.4585095    -0.1603285
N           3.6819786     0.2564154     0.9889432
C           4.9429295     0.6985497     1.0764422
H           5.4472296     0.5130764     2.0239125
22
354_C9H11NO_0-6-18-16 (165,) energy =    -479.5422640
C           1.1768964    -1.1566602     0.6138006
H           0.4966933    -0.8425952     1.4101614
H           2.0724744    -1.5636484     1.0887465
C           0.5296429    -2.1699978    -0.3527959
H          -0.5539403    -2.0180285    -0.4128955
H           0.7133438    -3.2105067    -0.0662327
C           1.5665171     0.0260757    -0.3073790
H           0.9441917     0.9072459    -0.1015746
O           1.2454066    -0.3656286    -1.6545810
C           1.1766079    -1.7912752    -1.6861755
H           2.1838936    -2.2306753    -1.7763570
H           0.5946626    -2.0723311    -2.5688277
C           5.6175917     1.3458213     0.0141295
H           6.6464802     1.6664737     0.1480447
C           4.8700997     1.7388654    -1.0981656
H           5.3053899     2.3796473    -1.8607340
C           3.5564228     1.2973844    -1.2131010
H           2.9418340     1.5661113    -2.0658501
C           3.0282149     0.4666701    -0.2134104
N           3.7398418     0.0928337     0.8573293
C           5.0045317     0.5255029     0.9577753
H           5.5501128     0.1960867     1.8409274
22
354_C9H11NO_0-6-18-16 (180,) energy =    -479.5413824
C           1.1156081    -1.0566540     0.6255189
H           0.4211631    -0.6515747     1.3672011
H           1.9858263    -1.4458831     1.1590289
C           0.4741219    -2.1372800    -0.2660690
H          -0.5924401    -1.9375545    -0.4209479
H           0.5776957    -3.1467246     0.1449594
C           1.5701576     0.0235335    -0.3825525
H           0.9261762     0.9113433    -0.3341088
O           1.3714571    -0.5259896    -1.7038311
C           1.2316976    -1.9412172    -1.5796100
H           2.2180664    -2.4322577    -1.5437402
H           0.6992080    -2.2970827    -2.4668803
C           5.6235340     1.3303830    -0.0143860
H           6.6587815     1.6316477     0.1152939
C           4.8201587     1.8935265    -1.0085878
H           5.2165317     2.6502641    -1.6806377
C           3.5013473     1.4690298    -1.1220375
H           2.8453410     1.8721801    -1.8876379
C           3.0198820     0.4894774    -0.2397944
N           3.7882319    -0.0500182     0.7140333
C           5.0584619     0.3662871     0.8160912
H           5.6485668    -0.0981726     1.6048480
