29
428_C13H13NO2_0-9-10-11 (-165,) energy =    -708.4046621
C           2.4557077    -1.5154124    -0.5087720
C           1.2854699    -1.2293670     0.2021060
H           1.2569703    -0.3276196     0.8070379
C           0.1749877    -2.0744532     0.1483491
H          -0.7209416    -1.8340553     0.7125417
C           0.2319273    -3.2237202    -0.6353179
H          -0.6226679    -3.8926751    -0.6899668
C           1.3844301    -3.5308625    -1.3632465
H           1.4091229    -4.4256964    -1.9745955
C           2.4959577    -2.6844140    -1.3028782
O           3.6537851    -2.8985227    -1.9913850
C           3.6540376    -3.8555499    -3.0424508
H           4.6223790    -3.7542449    -3.5351114
H           2.8510678    -3.6544009    -3.7623865
H           3.5508761    -4.8792374    -2.6597488
C           5.7163118     1.2627621    -0.4745192
H           6.5691707     1.9319611    -0.4575552
C           5.9439445    -0.0596436     0.0642498
N           4.8030634    -0.9162644     0.0582551
C           5.0180680    -2.2241806     0.6841075
H           5.7044286    -2.0867525     1.5192319
H           5.4723692    -2.9187882    -0.0276050
H           4.0659001    -2.6255504     1.0290230
C           3.5902125    -0.5494144    -0.4829102
C           3.4185801     0.7173547    -0.9888310
H           2.4624703     0.9850373    -1.4213358
C           4.5026056     1.6321711    -0.9761849
H           4.3604224     2.6313582    -1.3814034
O           7.0113851    -0.4674993     0.5226202
29
428_C13H13NO2_0-9-10-11 (-150,) energy =    -708.4034257
C           2.3968118    -1.5224113    -0.4553861
C           1.2249594    -1.2201118     0.2485208
H           1.1860065    -0.2926563     0.8126563
C           0.1244850    -2.0786412     0.2325155
H          -0.7729464    -1.8232348     0.7877871
C           0.1900028    -3.2595268    -0.5038730
H          -0.6584845    -3.9379133    -0.5288781
C           1.3445220    -3.5833441    -1.2193587
H           1.3842422    -4.5019978    -1.7946706
C           2.4481558    -2.7251671    -1.1933730
O           3.6051297    -2.9717637    -1.8777565
C           3.5282510    -3.7321485    -3.0789438
H           4.4856167    -3.5899927    -3.5836466
H           2.7138606    -3.3743483    -3.7202128
H           3.3884813    -4.8019874    -2.8770563
C           5.6224030     1.2922726    -0.5398282
H           6.4663297     1.9728598    -0.5485514
C           5.8606473     0.0040082     0.0733159
N           4.7296170    -0.8676407     0.0982045
C           4.9340571    -2.1446493     0.7909268
H           5.7572099    -2.0052702     1.4897188
H           5.1995989    -2.9291800     0.0773920
H           4.0219829    -2.4275452     1.3181488
C           3.5199088    -0.5426371    -0.4748383
C           3.3379321     0.6923858    -1.0497974
H           2.3821612     0.9243537    -1.5032659
C           4.4111880     1.6198065    -1.0747236
H           4.2627026     2.5943557    -1.5340982
O           6.9301652    -0.3572132     0.5642625
29
428_C13H13NO2_0-9-10-11 (-135,) energy =    -708.4018715
C           2.3990487    -1.5572919    -0.4400977
C           1.2214107    -1.2262889     0.2438482
H           1.1794177    -0.2792548     0.7741968
C           0.1197905    -2.0822815     0.2480050
H          -0.7822667    -1.8054421     0.7854280
C           0.1878747    -3.2913886    -0.4430077
H          -0.6622843    -3.9680820    -0.4482995
C           1.3487775    -3.6428791    -1.1328194
H           1.3994370    -4.5845959    -1.6697974
C           2.4530365    -2.7858413    -1.1303232
O           3.6179201    -3.0845706    -1.7883978
C           3.5124139    -3.6042704    -3.1122182
H           4.5152777    -3.5421242    -3.5392564
H           2.8166524    -3.0073369    -3.7136578
H           3.1896473    -4.6530629    -3.1184648
C           5.6332012     1.2422169    -0.6068600
H           6.4800115     1.9186558    -0.6349487
C           5.8655389    -0.0255826     0.0500340
N           4.7308724    -0.8915105     0.1006599
C           4.9281625    -2.1457872     0.8362629
H           5.7543013    -1.9880649     1.5275619
H           5.1850089    -2.9562565     0.1491786
H           4.0158217    -2.4033403     1.3759843
C           3.5248937    -0.5815086    -0.4874485
C           3.3483259     0.6340344    -1.1044455
H           2.3948776     0.8552808    -1.5681791
C           4.4250432     1.5562433    -1.1566081
H           4.2816188     2.5155299    -1.6485596
O           6.9324490    -0.3736219     0.5557262
29
428_C13H13NO2_0-9-10-11 (-120,) energy =    -708.4010099
C           2.3939319    -1.5951157    -0.4374206
C           1.2081628    -1.2474161     0.2265882
H           1.1579393    -0.2871918     0.7319338
C           0.1116025    -2.1085650     0.2455651
H          -0.7956311    -1.8202749     0.7682710
C           0.1902948    -3.3406766    -0.4049041
H          -0.6552667    -4.0228965    -0.3901544
C           1.3589523    -3.7059591    -1.0723640
H           1.4313719    -4.6675083    -1.5715571
C           2.4549180    -2.8393320    -1.0935127
O           3.6292218    -3.1853307    -1.7209252
C           3.5507286    -3.4248065    -3.1261252
H           4.5685271    -3.6481427    -3.4517152
H           3.1832399    -2.5357136    -3.6534571
H           2.9028138    -4.2779437    -3.3621551
C           5.6268699     1.2030049    -0.6488738
H           6.4730803     1.8797291    -0.6862967
C           5.8523799    -0.0437593     0.0496547
N           4.7183503    -0.9101147     0.1115897
C           4.9080335    -2.1435022     0.8840540
H           5.7263573    -1.9659227     1.5797639
H           5.1721612    -2.9722468     0.2220422
H           3.9900665    -2.3866753     1.4208521
C           3.5200209    -0.6196867    -0.5009732
C           3.3497184     0.5759274    -1.1577298
H           2.4013141     0.7828177    -1.6382575
C           4.4258922     1.4979713    -1.2241283
H           4.2876746     2.4415719    -1.7469219
O           6.9131164    -0.3740367     0.5793250
29
428_C13H13NO2_0-9-10-11 (-105,) energy =    -708.4009200
C           2.3911023    -1.6365512    -0.4431787
C           1.2046547    -1.2637395     0.2064961
H           1.1556054    -0.2887101     0.6828315
C           0.1070654    -2.1228768     0.2517922
H          -0.7996276    -1.8163397     0.7651527
C           0.1824792    -3.3765580    -0.3571901
H          -0.6650019    -4.0554555    -0.3197278
C           1.3514453    -3.7640406    -1.0117272
H           1.4317722    -4.7391109    -1.4834027
C           2.4476018    -2.9002142    -1.0590136
O           3.6141087    -3.2937634    -1.6788801
C           3.5860959    -3.2539197    -3.1070957
H           4.5634047    -3.6070490    -3.4420765
H           3.4229923    -2.2302330    -3.4670343
H           2.8033600    -3.9082523    -3.5118373
C           5.6414234     1.1360392    -0.7260385
H           6.4911768     1.8072184    -0.7797299
C           5.8567984    -0.0909226     0.0102222
N           4.7179487    -0.9497602     0.0923047
C           4.8975401    -2.1620473     0.9002683
H           5.7211276    -1.9726614     1.5865059
H           5.1485129    -3.0125291     0.2612034
H           3.9796280    -2.3787550     1.4484310
C           3.5235711    -0.6700948    -0.5324952
C           3.3631362     0.5062777    -1.2258943
H           2.4164956     0.7042072    -1.7137055
C           4.4447514     1.4203658    -1.3151881
H           4.3137969     2.3489043    -1.8660224
O           6.9133997    -0.4105978     0.5539440
29
428_C13H13NO2_0-9-10-11 (-90,) energy =    -708.4009849
C           2.3686996    -1.6682941    -0.4644576
C           1.1836114    -1.2750348     0.1753179
H           1.1359752    -0.2858843     0.6218224
C           0.0875769    -2.1341419     0.2557361
H          -0.8164567    -1.8110410     0.7636430
C           0.1620007    -3.4081799    -0.3085921
H          -0.6844211    -4.0863668    -0.2443451
C           1.3276991    -3.8138497    -0.9587381
H           1.4106162    -4.8004306    -1.4049699
C           2.4218611    -2.9515316    -1.0411548
O           3.5739137    -3.3859266    -1.6628831
C           3.6516804    -3.0864135    -3.0594861
H           4.6054425    -3.4895415    -3.4058591
H           3.6260864    -2.0040601    -3.2347915
H           2.8301071    -3.5629819    -3.6102270
C           5.6294356     1.0875572    -0.7903342
H           6.4824032     1.7537616    -0.8536193
C           5.8418582    -0.1315844    -0.0401870
N           4.6990515    -0.9844657     0.0560882
C           4.8746363    -2.1841101     0.8843784
H           5.6991733    -1.9861804     1.5669841
H           5.1211292    -3.0461967     0.2596050
H           3.9560085    -2.3875416     1.4362842
C           3.5043669    -0.7070831    -0.5697897
C           3.3473376     0.4620967    -1.2770247
H           2.4004704     0.6593806    -1.7648049
C           4.4324544     1.3707396    -1.3792783
H           4.3038904     2.2934990    -1.9402312
O           6.8984979    -0.4491059     0.5041728
29
428_C13H13NO2_0-9-10-11 (-75,) energy =    -708.4006952
C           2.3472764    -1.6872092    -0.4914865
C           1.1648437    -1.2741128     0.1420391
H           1.1229156    -0.2708900     0.5565525
C           0.0701580    -2.1291056     0.2658416
H          -0.8288287    -1.7870006     0.7701541
C           0.1426582    -3.4238476    -0.2487377
H          -0.7014112    -4.1011296    -0.1523193
C           1.3012375    -3.8489940    -0.8982160
H           1.3814221    -4.8473602    -1.3172871
C           2.3949857    -2.9911085    -1.0262538
O           3.5215795    -3.4753705    -1.6556123
C           3.7634710    -2.9732875    -2.9742187
H           4.6841313    -3.4512295    -3.3146819
H           3.8934244    -1.8857708    -2.9779695
H           2.9397038    -3.2432893    -3.6478957
C           5.6127699     1.0632228    -0.8230765
H           6.4675732     1.7268650    -0.8881104
C           5.8279807    -0.1629353    -0.0854228
N           4.6827774    -1.0133748     0.0144895
C           4.8586216    -2.2110183     0.8469213
H           5.6894262    -2.0137807     1.5220343
H           5.0947363    -3.0783005     0.2257250
H           3.9429932    -2.4060806     1.4066856
C           3.4831061    -0.7270766    -0.5993736
C           3.3239067     0.4502075    -1.2933900
H           2.3751284     0.6532085    -1.7751092
C           4.4107600     1.3564105    -1.3968505
H           4.2798342     2.2849225    -1.9476109
O           6.8878894    -0.4877700     0.4476573
29
428_C13H13NO2_0-9-10-11 (-60,) energy =    -708.3999099
C           2.2661003    -1.6941338    -0.5539096
C           1.0894106    -1.2867099     0.0972460
H           1.0479470    -0.2789517     0.5005971
C           0.0062757    -2.1480520     0.2583151
H          -0.8856020    -1.8073010     0.7758186
C           0.0845152    -3.4500553    -0.2375924
H          -0.7491934    -4.1358774    -0.1148630
C           1.2314004    -3.8690317    -0.9082852
H           1.3108200    -4.8691357    -1.3227548
C           2.3163626    -3.0040106    -1.0777402
O           3.4081903    -3.5206345    -1.7363349
C           3.8455333    -2.8597365    -2.9283754
H           4.6030553    -3.5135952    -3.3652188
H           4.2880511    -1.8804153    -2.7257787
H           3.0127846    -2.7444644    -3.6334349
C           5.4978603     1.0952656    -0.8823894
H           6.3452990     1.7681757    -0.9483782
C           5.7304891    -0.1336093    -0.1543333
N           4.5959106    -1.0000606    -0.0595242
C           4.7809470    -2.2005616     0.7685841
H           5.6553644    -2.0243508     1.3922421
H           4.9522603    -3.0789886     0.1417953
H           3.8939642    -2.3632689     1.3829947
C           3.3870012    -0.7178056    -0.6597999
C           3.2101260     0.4659382    -1.3371765
H           2.2568276     0.6618217    -1.8126963
C           4.2874722     1.3831333    -1.4413365
H           4.1431618     2.3157694    -1.9816669
O           6.7966755    -0.4476604     0.3724105
29
428_C13H13NO2_0-9-10-11 (-45,) energy =    -708.3993435
C           2.2332895    -1.7302452    -0.6068752
C           1.0855073    -1.3154432     0.0929311
H           1.0684394    -0.3055720     0.4927310
C           0.0056617    -2.1672539     0.3059813
H          -0.8609070    -1.8179509     0.8593150
C           0.0566946    -3.4724363    -0.1875637
H          -0.7742854    -4.1539675    -0.0277998
C           1.1685749    -3.8989734    -0.9064876
H           1.2224976    -4.8990067    -1.3249941
C           2.2525394    -3.0413100    -1.1309437
O           3.2861367    -3.5906072    -1.8461903
C           3.9123036    -2.8324404    -2.8860730
H           4.3839497    -3.5687090    -3.5410282
H           4.6791158    -2.1552788    -2.4997997
H           3.1709150    -2.2603917    -3.4548066
C           5.4511147     1.0740252    -0.9543555
H           6.2931861     1.7539253    -1.0172010
C           5.6869989    -0.1459386    -0.2123193
N           4.5596458    -1.0245535    -0.1295435
C           4.7434905    -2.2310836     0.6905290
H           5.6829887    -2.1056579     1.2252918
H           4.7957558    -3.1230081     0.0611162
H           3.9126433    -2.3333084     1.3917621
C           3.3516537    -0.7527794    -0.7383624
C           3.1718052     0.4239286    -1.4251289
H           2.2183196     0.6135064    -1.9028292
C           4.2439211     1.3476300    -1.5271787
H           4.0980686     2.2750180    -2.0760617
O           6.7502910    -0.4434251     0.3296586
29
428_C13H13NO2_0-9-10-11 (-30,) energy =    -708.3985260
C           2.2216952    -1.7468536    -0.6482409
C           1.1005692    -1.3291546     0.0953937
H           1.1058111    -0.3198419     0.4969387
C           0.0241447    -2.1718734     0.3485059
H          -0.8197484    -1.8176121     0.9326701
C           0.0522484    -3.4779914    -0.1467328
H          -0.7749089    -4.1565294     0.0430114
C           1.1327523    -3.9083924    -0.9061807
H           1.1634344    -4.9070995    -1.3300976
C           2.2158328    -3.0577997    -1.1745341
O           3.1840827    -3.6260811    -1.9565687
C           3.9855798    -2.8394502    -2.8396732
H           4.3725686    -3.5422924    -3.5810178
H           4.8257654    -2.3661350    -2.3243063
H           3.3856383    -2.0732815    -3.3414626
C           5.4417698     1.0629736    -0.9486658
H           6.2823392     1.7461458    -0.9932644
C           5.6707958    -0.1631444    -0.2152760
N           4.5431571    -1.0439981    -0.1547141
C           4.7168077    -2.2575610     0.6562718
H           5.6560631    -2.1424870     1.1938725
H           4.7667914    -3.1481685     0.0233728
H           3.8835045    -2.3618043     1.3539944
C           3.3429789    -0.7713740    -0.7799238
C           3.1711491     0.4101557    -1.4597191
H           2.2233347     0.6025792    -1.9475776
C           4.2422938     1.3375770    -1.5371529
H           4.1018819     2.2694719    -2.0797692
O           6.7275876    -0.4652550     0.3369327
29
428_C13H13NO2_0-9-10-11 (-15,) energy =    -708.3972300
C           2.3568973    -1.6421447    -0.7198580
C           1.2730393    -1.1884835     0.0589172
H           1.3895826    -0.2454496     0.5855838
C           0.0944646    -1.9130289     0.1870014
H          -0.7165164    -1.5322810     0.8002546
C          -0.0221331    -3.1382417    -0.4753857
H          -0.9308481    -3.7275217    -0.3880148
C           1.0191802    -3.5995520    -1.2680150
H           0.9397965    -4.5318457    -1.8181069
C           2.2095182    -2.8662030    -1.4100597
O           3.0945237    -3.4504997    -2.2710879
C           4.1950928    -2.7488068    -2.8456531
H           4.5465833    -3.3894002    -3.6573439
H           5.0102917    -2.5978958    -2.1328070
H           3.8831740    -1.7822614    -3.2535509
C           5.8868620     0.7790240    -0.5250173
H           6.7989557     1.3588442    -0.4404062
C           5.9051704    -0.5129983     0.1263176
N           4.6850238    -1.2547498     0.0155706
C           4.6395799    -2.5350328     0.7353880
H           5.5403951    -2.5829063     1.3444074
H           4.6282069    -3.3788519     0.0387810
H           3.7467979    -2.5811077     1.3621000
C           3.5895699    -0.7992122    -0.6907499
C           3.6170338     0.4382203    -1.2854265
H           2.7467529     0.7771479    -1.8342246
C           4.7885969     1.2343216    -1.1935476
H           4.8068742     2.2119376    -1.6694770
O           6.8624437    -0.9762521     0.7444313
29
428_C13H13NO2_0-9-10-11 (0,) energy =    -708.3960916
C           2.3029296    -1.6157783    -0.7237671
C           1.3167731    -1.2656709     0.2214784
H           1.5177133    -0.4153795     0.8675715
C           0.1221657    -1.9622439     0.3471762
H          -0.6122890    -1.6603712     1.0875299
C          -0.1151213    -3.0518229    -0.4962815
H          -1.0412143    -3.6151759    -0.4211483
C           0.8320536    -3.4157642    -1.4408642
H           0.6661745    -4.2513719    -2.1133680
C           2.0448584    -2.7140239    -1.5746764
O           2.8287932    -3.2156183    -2.5714739
C           4.0981576    -2.6762931    -2.9241907
H           4.4446158    -3.2931081    -3.7560490
H           4.8182259    -2.7496507    -2.1031513
H           4.0215346    -1.6350596    -3.2501220
C           5.7787368     0.9080313    -0.6723950
H           6.6726501     1.5195766    -0.6236257
C           5.8282070    -0.3414842     0.0532253
N           4.6384403    -1.1273832    -0.0169972
C           4.7050172    -2.3718807     0.7573737
H           5.0019088    -2.1367747     1.7815912
H           5.4720064    -3.0303034     0.3388364
H           3.7366893    -2.8661757     0.7453391
C           3.5258446    -0.7517511    -0.7420434
C           3.5196017     0.4503955    -1.4068078
H           2.6345648     0.7371733    -1.9615667
C           4.6668995     1.2858517    -1.3671943
H           4.6530682     2.2331523    -1.9010262
O           6.7851739    -0.7574238     0.7052322
29
428_C13H13NO2_0-9-10-11 (15,) energy =    -708.3961818
C           2.3154414    -1.6286009    -0.7114053
C           1.4271000    -1.4150178     0.3628459
H           1.7152464    -0.6942591     1.1238056
C           0.2068572    -2.0693503     0.4598282
H          -0.4539921    -1.8736876     1.2987207
C          -0.1600435    -2.9683813    -0.5472569
H          -1.1126513    -3.4888258    -0.4990662
C           0.6974819    -3.2069236    -1.6099385
H           0.4414213    -3.9106831    -2.3955450
C           1.9407136    -2.5543087    -1.7093583
O           2.6507515    -2.9331416    -2.8108519
C           4.0410999    -2.6675769    -2.9669487
H           4.3621585    -3.3064133    -3.7928326
H           4.6074023    -2.9351795    -2.0679562
H           4.2330666    -1.6213951    -3.2189892
C           5.7498838     0.9481831    -0.7107952
H           6.6283101     1.5820326    -0.6656988
C           5.7803073    -0.2323095     0.1231726
N           4.6183129    -1.0577658     0.0428454
C           4.6891765    -2.2614078     0.8790644
H           4.7245555    -1.9776604     1.9345678
H           5.6143893    -2.7969697     0.6545341
H           3.8237681    -2.8924319     0.6915296
C           3.5322837    -0.7585612    -0.7537527
C           3.5406924     0.3830438    -1.5181125
H           2.6727058     0.6141873    -2.1235161
C           4.6720955     1.2403014    -1.4949736
H           4.6703269     2.1392771    -2.1068303
O           6.7040072    -0.5655961     0.8645213
29
428_C13H13NO2_0-9-10-11 (30,) energy =    -708.3967762
C           2.3536051    -1.6831275    -0.6849444
C           1.5337040    -1.5783260     0.4566275
H           1.8747644    -0.9501710     1.2755975
C           0.3046160    -2.2184728     0.5444131
H          -0.3058929    -2.1082647     1.4354913
C          -0.1405790    -2.9869351    -0.5364464
H          -1.1021728    -3.4909975    -0.4929624
C           0.6542374    -3.1222120    -1.6656047
H           0.3415364    -3.7314704    -2.5076593
C           1.9045139    -2.4861470    -1.7550851
O           2.5657454    -2.7316317    -2.9248188
C           3.9906349    -2.7447836    -2.9893612
H           4.2377884    -3.3657614    -3.8539670
H           4.4265261    -3.1940142    -2.0893744
H           4.4029033    -1.7425520    -3.1309031
C           5.7713982     0.9086156    -0.7376132
H           6.6427911     1.5526654    -0.7021602
C           5.7918088    -0.2293004     0.1536309
N           4.6429321    -1.0744028     0.0790888
C           4.7164835    -2.2549352     0.9474126
H           4.6058666    -1.9626606     1.9961693
H           5.7040290    -2.7058345     0.8362455
H           3.9345190    -2.9612069     0.6778213
C           3.5677708    -0.8156584    -0.7460962
C           3.5862046     0.2863404    -1.5671934
H           2.7280036     0.4834040    -2.1980180
C           4.7109913     1.1514777    -1.5617389
H           4.7167751     2.0196232    -2.2165814
O           6.6999545    -0.5144863     0.9334105
29
428_C13H13NO2_0-9-10-11 (45,) energy =    -708.3972565
C           2.3755959    -1.7256949    -0.6533187
C           1.5636752    -1.6957991     0.4962889
H           1.9035971    -1.1199213     1.3531308
C           0.3366121    -2.3470555     0.5453518
H          -0.2707884    -2.2960388     1.4439913
C          -0.1112063    -3.0479115    -0.5783442
H          -1.0701725    -3.5584802    -0.5610130
C           0.6794647    -3.1074539    -1.7194667
H           0.3642054    -3.6613278    -2.5980300
C           1.9224940    -2.4594353    -1.7699684
O           2.5924380    -2.5851941    -2.9578646
C           3.9940728    -2.8636895    -2.9553533
H           4.2021930    -3.3450240    -3.9141146
H           4.2574465    -3.5521580    -2.1432225
H           4.5924267    -1.9526804    -2.8708644
C           5.8053481     0.8463737    -0.6377973
H           6.6783143     1.4870290    -0.5844091
C           5.7929888    -0.2782315     0.2701197
N           4.6453363    -1.1224914     0.1683626
C           4.6960883    -2.3042254     1.0367763
H           4.4991420    -2.0261416     2.0769899
H           5.7049489    -2.7168011     0.9934871
H           3.9620590    -3.0367412     0.7081524
C           3.5943628    -0.8663340    -0.6889318
C           3.6448977     0.2214879    -1.5275209
H           2.8093306     0.4113702    -2.1898131
C           4.7734780     1.0803544    -1.5001196
H           4.8048807     1.9376347    -2.1683880
O           6.6756573    -0.5545341     1.0818558
29
428_C13H13NO2_0-9-10-11 (60,) energy =    -708.3978180
C           2.3921202    -1.7033276    -0.6557933
C           1.6035882    -1.7171918     0.5085699
H           1.9484782    -1.1616057     1.3765238
C           0.3875767    -2.3916702     0.5600271
H          -0.2036296    -2.3758165     1.4708414
C          -0.0707017    -3.0702453    -0.5716753
H          -1.0206385    -3.5970734    -0.5481713
C           0.6974191    -3.0806939    -1.7321244
H           0.3713403    -3.6090520    -2.6224894
C           1.9222097    -2.4050941    -1.7858512
O           2.5850444    -2.4459252    -2.9892401
C           3.9047519    -2.9936389    -2.9986117
H           4.1956461    -3.0497569    -4.0497488
H           3.9091351    -4.0029849    -2.5668859
H           4.6210317    -2.3626669    -2.4639597
C           5.8154677     0.8749038    -0.6577938
H           6.6847287     1.5206807    -0.6056213
C           5.7928912    -0.2268048     0.2774363
N           4.6514579    -1.0796349     0.1763177
C           4.7009264    -2.2528600     1.0567090
H           4.4396854    -1.9797950     2.0841883
H           5.7261101    -2.6243202     1.0663781
H           4.0144692    -3.0160253     0.6957206
C           3.6105404    -0.8455585    -0.7017582
C           3.6741058     0.2175333    -1.5701757
H           2.8506083     0.3870006    -2.2521694
C           4.7992077     1.0804524    -1.5453567
H           4.8398744     1.9192609    -2.2361469
O           6.6645870    -0.4785673     1.1090230
29
428_C13H13NO2_0-9-10-11 (75,) energy =    -708.3982743
C           2.4112261    -1.6732191    -0.6673376
C           1.6340723    -1.7197475     0.5024180
H           1.9653754    -1.1600708     1.3728769
C           0.4435380    -2.4402634     0.5567699
H          -0.1414472    -2.4498370     1.4717747
C           0.0019950    -3.1330852    -0.5722979
H          -0.9277593    -3.6944820    -0.5432114
C           0.7576540    -3.1037874    -1.7422797
H           0.4363356    -3.6296580    -2.6360655
C           1.9517379    -2.3794293    -1.7981570
O           2.6191471    -2.3417199    -3.0022312
C           3.8217959    -3.1092486    -3.0683775
H           4.2047464    -2.9881290    -4.0837970
H           3.6184653    -4.1715414    -2.8784127
H           4.5742994    -2.7502171    -2.3564588
C           5.8360413     0.9025653    -0.6898702
H           6.7054110     1.5484667    -0.6409536
C           5.8082234    -0.1873228     0.2587291
N           4.6668362    -1.0405613     0.1627003
C           4.7122414    -2.2045066     1.0557269
H           4.4106580    -1.9306461     2.0720264
H           5.7449840    -2.5508014     1.1014040
H           4.0560172    -2.9870222     0.6796648
C           3.6289676    -0.8153596    -0.7228808
C           3.6998299     0.2345483    -1.6060393
H           2.8816370     0.3951268    -2.2959672
C           4.8251185     1.0970181    -1.5858255
H           4.8702140     1.9265973    -2.2874061
O           6.6766335    -0.4282321     1.0973364
29
428_C13H13NO2_0-9-10-11 (90,) energy =    -708.3981276
C           2.4305028    -1.6359798    -0.6661537
C           1.6455926    -1.6982153     0.4979358
H           1.9515672    -1.1266456     1.3699077
C           0.4793315    -2.4577144     0.5453924
H          -0.1135644    -2.4814341     1.4550900
C           0.0707076    -3.1728977    -0.5826065
H          -0.8413848    -3.7626733    -0.5562112
C           0.8313579    -3.1215343    -1.7487184
H           0.5276429    -3.6552274    -2.6443523
C           2.0009479    -2.3577171    -1.7969827
O           2.6902571    -2.2795716    -2.9875619
C           3.7269956    -3.2475498    -3.1474631
H           4.1539416    -3.0804604    -4.1385382
H           3.3283987    -4.2691635    -3.0874331
H           4.5117475    -3.1219584    -2.3900591
C           5.8329868     0.9680852    -0.6596779
H           6.6965865     1.6210124    -0.6022239
C           5.8063973    -0.1246438     0.2854009
N           4.6727858    -0.9867437     0.1785543
C           4.7187601    -2.1538281     1.0673356
H           4.3932879    -1.8902768     2.0790501
H           5.7558511    -2.4836821     1.1308451
H           4.0823043    -2.9449542     0.6753646
C           3.6403410    -0.7668427    -0.7144912
C           3.7100614     0.2851747    -1.5947428
H           2.8966422     0.4406384    -2.2913706
C           4.8278456     1.1566204    -1.5634036
H           4.8720796     1.9880600    -2.2628384
O           6.6701971    -0.3599186     1.1306797
29
428_C13H13NO2_0-9-10-11 (105,) energy =    -708.3979779
C           2.4565954    -1.6030048    -0.6605160
C           1.6525820    -1.6646178     0.4907452
H           1.9338818    -1.0742880     1.3585381
C           0.5043008    -2.4505925     0.5313411
H          -0.1029370    -2.4757604     1.4314574
C           0.1316609    -3.1921514    -0.5926776
H          -0.7673881    -3.8019263    -0.5738215
C           0.9079942    -3.1381842    -1.7475307
H           0.6232906    -3.6897219    -2.6388602
C           2.0617939    -2.3482471    -1.7879643
O           2.7870554    -2.2634923    -2.9554243
C           3.6147925    -3.3902787    -3.2412498
H           4.0813553    -3.1913562    -4.2082107
H           3.0285112    -4.3165099    -3.3034148
H           4.3957430    -3.5115979    -2.4788767
C           5.8228221     1.0477947    -0.6160585
H           6.6774811     1.7115165    -0.5492117
C           5.8081590    -0.0554699     0.3167315
N           4.6855106    -0.9300290     0.1975364
C           4.7425275    -2.1040001     1.0761739
H           4.4027941    -1.8551926     2.0869796
H           5.7844001    -2.4168945     1.1462876
H           4.1232724    -2.9020674     0.6709039
C           3.6538298    -0.7154331    -0.6968723
C           3.7114381     0.3474234    -1.5643268
H           2.8982496     0.4992130    -2.2622067
C           4.8174147     1.2330782    -1.5202427
H           4.8525160     2.0728142    -2.2102422
O           6.6726230    -0.2884074     1.1622616
29
428_C13H13NO2_0-9-10-11 (120,) energy =    -708.3982753
C           2.3771353    -1.5065256    -0.6201691
C           1.3657094    -1.3813179     0.3423712
H           1.4796467    -0.6374941     1.1261428
C           0.2340964    -2.1957264     0.3082443
H          -0.5352067    -2.0881772     1.0671836
C           0.0942816    -3.1392499    -0.7106334
H          -0.7881077    -3.7719873    -0.7528114
C           1.0795570    -3.2652808    -1.6891068
H           0.9627148    -3.9771229    -2.5007528
C           2.2166496    -2.4523780    -1.6499676
O           3.1797618    -2.5219341    -2.6284044
C           3.8583906    -3.7691187    -2.7711085
H           4.6069656    -3.6170906    -3.5511411
H           3.1792786    -4.5742075    -3.0794345
H           4.3567830    -4.0597100    -1.8385940
C           5.7485353     1.1456224    -0.5738218
H           6.6257146     1.7823035    -0.5479487
C           5.9163094    -0.1818362    -0.0280289
N           4.7475681    -0.9979026    -0.0595916
C           4.9313111    -2.3169825     0.5503408
H           5.3652484    -2.1907503     1.5445223
H           5.6383349    -2.9071365    -0.0400890
H           3.9738988    -2.8292119     0.6165421
C           3.5506890    -0.5810651    -0.6007920
C           3.4333436     0.6896193    -1.1056241
H           2.4875027     1.0003383    -1.5318940
C           4.5542550     1.5600591    -1.0873179
H           4.4540119     2.5639400    -1.4932386
O           6.9542117    -0.6375603     0.4530736
29
428_C13H13NO2_0-9-10-11 (135,) energy =    -708.4004529
C           2.3867869    -1.4738478    -0.6044583
C           1.2961741    -1.2634736     0.2499336
H           1.3559334    -0.4592204     0.9776775
C           0.1628563    -2.0750079     0.1924466
H          -0.6646742    -1.9025542     0.8740607
C           0.1044742    -3.1061974    -0.7442721
H          -0.7726015    -3.7450581    -0.8020103
C           1.1686682    -3.3212078    -1.6207059
H           1.1122399    -4.1109955    -2.3629487
C           2.3014491    -2.5036758    -1.5640455
O           3.3606602    -2.6557756    -2.4203072
C           3.8341411    -3.9812629    -2.6524001
H           4.8145987    -3.8725695    -3.1205054
H           3.1778419    -4.5370772    -3.3342461
H           3.9317576    -4.5383862    -1.7133762
C           5.7199486     1.2223518    -0.5055823
H           6.5889025     1.8700463    -0.4760986
C           5.9444077    -0.1522687    -0.1193580
N           4.7850878    -0.9815887    -0.1442813
C           5.0193029    -2.3474241     0.3265602
H           5.6318719    -2.3019507     1.2282348
H           5.5754543    -2.9183133    -0.4225697
H           4.0670582    -2.8313890     0.5362648
C           3.5487574    -0.5384308    -0.5602627
C           3.3793732     0.7771467    -0.9190381
H           2.4044047     1.1085845    -1.2542922
C           4.4863458     1.6641659    -0.8858033
H           4.3440915     2.7024716    -1.1761934
O           7.0230360    -0.6328797     0.2298499
29
428_C13H13NO2_0-9-10-11 (150,) energy =    -708.4027719
C           2.4035287    -1.4651862    -0.5883783
C           1.2873584    -1.2317758     0.2233598
H           1.3191649    -0.3978374     0.9187007
C           0.1633230    -2.0578698     0.1690361
H          -0.6856345    -1.8659500     0.8181604
C           0.1467857    -3.1306532    -0.7194524
H          -0.7192040    -3.7849304    -0.7722214
C           1.2391841    -3.3745185    -1.5546097
H           1.2086709    -4.2021315    -2.2550497
C           2.3591444    -2.5389734    -1.5047747
O           3.4524483    -2.7000153    -2.3080143
C           3.7781456    -4.0161182    -2.7433197
H           4.7933938    -3.9573588    -3.1399874
H           3.1061649    -4.3595502    -3.5403220
H           3.7451489    -4.7291402    -1.9105406
C           5.7236712     1.2452642    -0.4897338
H           6.5900452     1.8964464    -0.4609488
C           5.9523834    -0.1265420    -0.0956898
N           4.7964419    -0.9605133    -0.1171948
C           5.0331088    -2.3224419     0.3650632
H           5.6547277    -2.2673739     1.2597983
H           5.5780809    -2.9022587    -0.3852079
H           4.0822427    -2.8022567     0.5897624
C           3.5599696    -0.5248884    -0.5421307
C           3.3870559     0.7881694    -0.9100816
H           2.4129731     1.1132370    -1.2540729
C           4.4897394     1.6801516    -0.8766715
H           4.3443924     2.7162435    -1.1734401
O           7.0327749    -0.5996619     0.2583038
29
428_C13H13NO2_0-9-10-11 (165,) energy =    -708.4043953
C           2.4181491    -1.4733407    -0.5723704
C           1.2849332    -1.2191030     0.2071182
H           1.2983726    -0.3608829     0.8728512
C           0.1642600    -2.0507556     0.1559490
H          -0.6996409    -1.8402190     0.7789549
C           0.1720332    -3.1517821    -0.6961055
H          -0.6901400    -3.8112376    -0.7469769
C           1.2837622    -3.4215916    -1.4984030
H           1.2675432    -4.2746634    -2.1670840
C           2.4008087    -2.5817049    -1.4497330
O           3.5181505    -2.7557936    -2.2124365
C           3.7072520    -4.0043685    -2.8656234
H           4.7128519    -3.9691413    -3.2877786
H           2.9828713    -4.1499208    -3.6772536
H           3.6322731    -4.8401042    -2.1585495
C           5.7238188     1.2540896    -0.5005305
H           6.5872086     1.9094579    -0.4776038
C           5.9519434    -0.1039151    -0.0605965
N           4.7996774    -0.9433519    -0.0742267
C           5.0319865    -2.2890644     0.4548788
H           5.6540740    -2.2036955     1.3466875
H           5.5718079    -2.8970781    -0.2762656
H           4.0793506    -2.7571796     0.6963125
C           3.5690798    -0.5265135    -0.5337519
C           3.3967530     0.7738122    -0.9453560
H           2.4273637     1.0832213    -1.3159935
C           4.4948599     1.6715809    -0.9210695
H           4.3504214     2.6973815    -1.2521519
O           7.0289052    -0.5598643     0.3248688
29
428_C13H13NO2_0-9-10-11 (180,) energy =    -708.4050584
C           2.4620711    -1.5008708    -0.5297217
C           1.3108706    -1.2300204     0.2164810
H           1.3047847    -0.3510482     0.8546767
C           0.1935127    -2.0662614     0.1621152
H          -0.6861290    -1.8401198     0.7569594
C           0.2245709    -3.1895080    -0.6592329
H          -0.6350140    -3.8520606    -0.7137843
C           1.3563321    -3.4793699    -1.4263870
H           1.3570411    -4.3522183    -2.0687862
C           2.4723712    -2.6385067    -1.3698412
O           3.6109152    -2.8287152    -2.0951566
C           3.6890679    -3.9529411    -2.9603430
H           4.6744307    -3.8999865    -3.4257350
H           2.9163567    -3.9138302    -3.7386135
H           3.5980432    -4.8954287    -2.4052300
C           5.7499168     1.2461233    -0.4626841
H           6.6091168     1.9069520    -0.4387901
C           5.9750705    -0.0965585     0.0239903
N           4.8267867    -0.9424247     0.0096766
C           5.0462167    -2.2722356     0.5843951
H           5.7103898    -2.1641073     1.4419375
H           5.5307830    -2.9278752    -0.1442346
H           4.0924549    -2.7014781     0.8878524
C           3.6065503    -0.5465811    -0.4937349
C           3.4374398     0.7389684    -0.9506360
H           2.4758484     1.0306822    -1.3544767
C           4.5300333     1.6433588    -0.9268603
H           4.3891025     2.6575495    -1.2933757
O           7.0463717    -0.5317464     0.4471591
