29
428_C13H13NO2_1-0-23-24 (-165,) energy =    -708.3884290
C           2.6858031    -1.7508319    -0.6143334
C           1.9536190    -2.0169999     0.5598904
H           2.1480177    -1.4143604     1.4358067
C           0.9069010    -2.9315359     0.6263809
H           0.3640032    -3.0620921     1.5574388
C           0.5712928    -3.6644564    -0.5058465
H          -0.2386324    -4.3881773    -0.4828050
C           1.2825262    -3.4646242    -1.6861636
H           1.0206619    -4.0451901    -2.5618548
C           2.3340042    -2.5416125    -1.7539595
O           3.0584578    -2.3860407    -2.8987006
C           2.7958711    -3.2225172    -4.0161917
H           3.5314308    -2.9397579    -4.7711940
H           1.7867157    -3.0604381    -4.4153116
H           2.9226830    -4.2824199    -3.7633373
C           5.9753864     1.0482703    -0.4914513
H           6.7668861     1.7842763    -0.4071453
C           5.5166305     0.4641126     0.7459478
N           4.5187255    -0.5531075     0.6208303
C           4.4839120    -1.4193541     1.8125982
H           5.4972006    -1.4530628     2.2138877
H           4.1526502    -2.4187871     1.5388367
H           3.8430567    -1.0142105     2.6015787
C           3.8603932    -0.8294245    -0.5852094
C           4.4097245    -0.3084693    -1.7397000
H           3.9328349    -0.5091851    -2.6834405
C           5.4658151     0.6356809    -1.6841357
H           5.8454493     1.0495566    -2.6154675
O           5.9795587     0.7251153     1.8569008
29
428_C13H13NO2_1-0-23-24 (-150,) energy =    -708.3957536
C           2.6793814    -1.7310373    -0.6042473
C           1.8927217    -1.9101085     0.5474394
H           2.0853579    -1.2797955     1.4072662
C           0.8237533    -2.8005284     0.6027433
H           0.2312204    -2.8803833     1.5089377
C           0.5301182    -3.5788494    -0.5123492
H          -0.2969152    -4.2832288    -0.4942610
C           1.3025639    -3.4582061    -1.6663205
H           1.0708800    -4.0788215    -2.5232567
C           2.3751126    -2.5591780    -1.7232717
O           3.1723485    -2.4538000    -2.8242938
C           2.9602282    -3.3307991    -3.9210206
H           3.7402981    -3.0883269    -4.6446329
H           1.9767727    -3.1730570    -4.3818717
H           3.0565895    -4.3816175    -3.6201455
C           5.9428142     1.0764249    -0.5073927
H           6.7440196     1.8026007    -0.4294146
C           5.6152003     0.3611388     0.7026627
N           4.5887729    -0.6264430     0.5763788
C           4.5559272    -1.5479429     1.7225189
H           5.5812811    -1.6615966     2.0753019
H           4.1474738    -2.5089849     1.4175736
H           3.9724482    -1.1426819     2.5549656
C           3.8418523    -0.7995123    -0.5873200
C           4.2431138    -0.1355346    -1.7265686
H           3.6795614    -0.2703877    -2.6365031
C           5.2958221     0.8107189    -1.6770544
H           5.5710193     1.3394239    -2.5866798
O           6.1858405     0.5069803     1.7843450
29
428_C13H13NO2_1-0-23-24 (-135,) energy =    -708.4002457
C           2.6765708    -1.7279825    -0.5908449
C           1.8268325    -1.8125636     0.5228915
H           2.0102992    -1.1530722     1.3650878
C           0.7341120    -2.6760311     0.5613043
H           0.0897213    -2.6990272     1.4347461
C           0.4822592    -3.5013555    -0.5312741
H          -0.3631944    -4.1838040    -0.5228071
C           1.3160546    -3.4607822    -1.6488191
H           1.1120112    -4.1166843    -2.4866455
C           2.4115639    -2.5890107    -1.6878065
O           3.2727238    -2.5289907    -2.7430690
C           3.0947892    -3.4287998    -3.8270518
H           3.9138219    -3.2221499    -4.5179392
H           2.1379917    -3.2624646    -4.3386912
H           3.1524348    -4.4737763    -3.4965702
C           5.9003399     1.1054172    -0.4994631
H           6.7013030     1.8316793    -0.4200399
C           5.6867985     0.2733728     0.6609672
N           4.6498315    -0.7011215     0.5297430
C           4.6281093    -1.6758024     1.6288067
H           5.6610654    -1.8576140     1.9266043
H           4.1539661    -2.5977832     1.2995122
H           4.1016922    -1.2805540     2.5033512
C           3.8318586    -0.7888991    -0.5868150
C           4.1015177     0.0038675    -1.6787856
H           3.4696189    -0.0759258    -2.5520013
C           5.1461371     0.9584463    -1.6267225
H           5.3327800     1.5867732    -2.4945339
O           6.3410398     0.3257323     1.7031919
29
428_C13H13NO2_1-0-23-24 (-120,) energy =    -708.4021735
C           2.6546685    -1.7126313    -0.5811688
C           1.7456971    -1.6989381     0.4845551
H           1.9076842    -0.9942478     1.2954406
C           0.6369916    -2.5437345     0.5147221
H          -0.0561574    -2.5038586     1.3493805
C           0.4307255    -3.4310514    -0.5390408
H          -0.4271528    -4.0979666    -0.5343915
C           1.3220766    -3.4753372    -1.6120949
H           1.1481874    -4.1767664    -2.4195444
C           2.4338305    -2.6236666    -1.6414587
O           3.3544873    -2.6201816    -2.6466484
C           3.2097743    -3.5510811    -3.7088096
H           4.0622114    -3.3805017    -4.3683576
H           2.2795202    -3.3856896    -4.2677189
H           3.2337811    -4.5860381    -3.3438295
C           5.8715198     1.1194925    -0.5162866
H           6.6799083     1.8382417    -0.4434933
C           5.7637913     0.1805771     0.5759994
N           4.7091591    -0.7746221     0.4493573
C           4.7084324    -1.8072070     1.4925353
H           5.7466763    -2.0245895     1.7434209
H           4.2017197    -2.6996063     1.1305345
H           4.2162080    -1.4489521     2.4026380
C           3.8072568    -0.7678810    -0.5978912
C           3.9559579     0.1401722    -1.6183210
H           3.2464858     0.1310547    -2.4355046
C           5.0060350     1.0899948    -1.5712618
H           5.1101038     1.8072132    -2.3821206
O           6.5049102     0.1410226     1.5588383
29
428_C13H13NO2_1-0-23-24 (-105,) energy =    -708.4026609
C           2.6007352    -1.6562693    -0.5788204
C           1.6268764    -1.5661173     0.4208664
H           1.7390233    -0.8058275     1.1893892
C           0.5208963    -2.4170034     0.4382666
H          -0.2264708    -2.3249809     1.2203804
C           0.3874760    -3.3778290    -0.5614019
H          -0.4676936    -4.0483186    -0.5650729
C           1.3464383    -3.4937568    -1.5697085
H           1.2257172    -4.2505905    -2.3359714
C           2.4553834    -2.6384012    -1.5836253
O           3.4465663    -2.6897084    -2.5178877
C           3.3653855    -3.6684673    -3.5430799
H           4.2558114    -3.5270568    -4.1577576
H           2.4700669    -3.5299030    -4.1630062
H           3.3662917    -4.6858288    -3.1306368
C           5.8484826     1.1384176    -0.5160475
H           6.6764764     1.8350939    -0.4485483
C           5.8369642     0.0784496     0.4661532
N           4.7509985    -0.8401763     0.3453890
C           4.7922560    -1.9594339     1.2928966
H           5.8360293    -2.2398516     1.4337630
H           4.2143554    -2.7953397     0.9035685
H           4.3922167    -1.6597859     2.2674623
C           3.7525559    -0.7060873    -0.5964911
C           3.8000730     0.3204226    -1.5062310
H           3.0073398     0.4099911    -2.2385365
C           4.8706420     1.2492970    -1.4617683
H           4.9022431     2.0600200    -2.1860063
O           6.6730008    -0.0814536     1.3560701
29
428_C13H13NO2_1-0-23-24 (-90,) energy =    -708.4034129
C           2.5501009    -1.5612308    -0.4908568
C           1.4869697    -1.4189325     0.4039602
H           1.5251699    -0.6135562     1.1326854
C           0.3845187    -2.2759937     0.3632599
H          -0.4349632    -2.1450718     1.0633155
C           0.3500838    -3.2939305    -0.5861182
H          -0.5012338    -3.9675870    -0.6348899
C           1.4052952    -3.4662313    -1.4856067
H           1.3612635    -4.2676531    -2.2139790
C           2.5102196    -2.6088860    -1.4356735
O           3.6006171    -2.7125737    -2.2481827
C           3.6185607    -3.7334431    -3.2354807
H           4.5699915    -3.6229741    -3.7580534
H           2.7943666    -3.6148499    -3.9505982
H           3.5655984    -4.7325598    -2.7838991
C           5.9017867     1.0952023    -0.3142121
H           6.7716461     1.7375023    -0.2352113
C           5.9485276    -0.1190487     0.4712497
N           4.7910848    -0.9494298     0.3519083
C           4.8171760    -2.2137515     1.0961750
H           5.7549418    -2.2299310     1.6486444
H           4.7764694    -3.0594285     0.4040672
H           3.9725419    -2.2741263     1.7866718
C           3.7134792    -0.6243503    -0.4428639
C           3.7163765     0.5311596    -1.1806546
H           2.8611345     0.7624033    -1.8037421
C           4.8350238     1.4019659    -1.1067779
H           4.8356161     2.3199652    -1.6899580
O           6.8868872    -0.4526130     1.1950745
29
428_C13H13NO2_1-0-23-24 (-75,) energy =    -708.4045912
C           2.5119575    -1.5565378    -0.5028408
C           1.3955725    -1.3343721     0.3078028
H           1.4062730    -0.4832403     0.9830277
C           0.2821608    -2.1768988     0.2571791
H          -0.5756583    -1.9867655     0.8949575
C           0.2877303    -3.2581401    -0.6195585
H          -0.5702377    -3.9228573    -0.6738078
C           1.3917170    -3.5049197    -1.4403252
H           1.3753852    -4.3510450    -2.1174397
C           2.5058456    -2.6613120    -1.3825409
O           3.6320802    -2.8238116    -2.1348761
C           3.6723935    -3.8834613    -3.0803825
H           4.6428684    -3.8037740    -3.5725215
H           2.8749570    -3.7834792    -3.8276753
H           3.5916025    -4.8632520    -2.5921557
C           5.8682621     1.0974313    -0.3680684
H           6.7443155     1.7340548    -0.3158659
C           6.0013140    -0.2032033     0.2514910
N           4.8286575    -1.0163693     0.1900838
C           4.9285529    -2.3318300     0.8308104
H           5.7790343    -2.2935440     1.5090999
H           5.1029491    -3.1081759     0.0797223
H           4.0091507    -2.5536842     1.3745627
C           3.6744786    -0.6218147    -0.4504220
C           3.5968071     0.6150804    -1.0398367
H           2.6833032     0.9008131    -1.5467566
C           4.7168857     1.4851936    -0.9880019
H           4.6518605     2.4657789    -1.4538620
O           7.0184671    -0.6196135     0.8064100
29
428_C13H13NO2_1-0-23-24 (-60,) energy =    -708.4050411
C           2.4996354    -1.5428251    -0.4955234
C           1.3271064    -1.2532016     0.2100244
H           1.3120580    -0.3717685     0.8445856
C           0.2012486    -2.0747164     0.1226303
H          -0.6942638    -1.8340654     0.6873275
C           0.2440020    -3.2021500    -0.6925755
H          -0.6217350    -3.8540783    -0.7720110
C           1.3957227    -3.5091671    -1.4221196
H           1.4056310    -4.3842425    -2.0613804
C           2.5202946    -2.6824384    -1.3332105
O           3.6760553    -2.8879486    -2.0263586
C           3.7511627    -3.9924843    -2.9168240
H           4.7446803    -3.9438308    -3.3650390
H           2.9915107    -3.9227214    -3.7056461
H           3.6373716    -4.9465974    -2.3862447
C           5.8031459     1.1822032    -0.3391459
H           6.6656985     1.8374895    -0.2934862
C           6.0153655    -0.1709333     0.1234921
N           4.8622727    -1.0094802     0.0822652
C           5.0666966    -2.3464155     0.6459507
H           5.7125742    -2.2496568     1.5187729
H           5.5652939    -2.9950215    -0.0792471
H           4.1057003    -2.7765912     0.9240712
C           3.6504569    -0.5983947    -0.4295711
C           3.4930591     0.6980568    -0.8602766
H           2.5385749     1.0025108    -1.2714583
C           4.5900118     1.5956300    -0.8069467
H           4.4581046     2.6178276    -1.1540457
O           7.0792851    -0.6205699     0.5500927
29
428_C13H13NO2_1-0-23-24 (-45,) energy =    -708.4036234
C           2.5140656    -1.5661145    -0.4842439
C           1.3001057    -1.2001071     0.1122562
H           1.2739989    -0.2917826     0.7066788
C           0.1556735    -1.9892446    -0.0035813
H          -0.7636342    -1.6905621     0.4907522
C           0.2098546    -3.1603894    -0.7542118
H          -0.6693354    -3.7913833    -0.8522115
C           1.3907456    -3.5319561    -1.4004442
H           1.4077611    -4.4315363    -2.0043336
C           2.5333212    -2.7321488    -1.2897759
O           3.6992026    -2.9863263    -1.9478414
C           3.7718483    -4.1178656    -2.8039129
H           4.7769190    -4.1028286    -3.2281253
H           3.0335405    -4.0549757    -3.6131913
H           3.6247829    -5.0536234    -2.2494525
C           5.7905227     1.1976783    -0.3032681
H           6.6438661     1.8646077    -0.2544168
C           6.0510260    -0.1856785     0.0235264
N           4.9114050    -1.0430307    -0.0168285
C           5.1673767    -2.3901317     0.5010384
H           5.8092197    -2.2965370     1.3780829
H           5.6913908    -2.9956979    -0.2414046
H           4.2245089    -2.8646391     0.7675288
C           3.6632325    -0.6205467    -0.4269970
C           3.4562828     0.7139637    -0.6992343
H           2.4775808     1.0358366    -1.0319984
C           4.5390747     1.6263864    -0.6366326
H           4.3643117     2.6738913    -0.8710618
O           7.1439200    -0.6467038     0.3540299
29
428_C13H13NO2_1-0-23-24 (-30,) energy =    -708.3992241
C           2.5239397    -1.5796622    -0.4642394
C           1.2745662    -1.1570298     0.0189962
H           1.2287763    -0.2263490     0.5753934
C           0.1220249    -1.9270884    -0.1195947
H          -0.8159021    -1.5811774     0.3038184
C           0.1904498    -3.1394700    -0.8008595
H          -0.6942471    -3.7604947    -0.9117356
C           1.3948186    -3.5576215    -1.3665715
H           1.4244582    -4.4808360    -1.9328250
C           2.5450792    -2.7691611    -1.2418945
O           3.7138006    -3.0569461    -1.8786895
C           3.7867951    -4.2112627    -2.7036411
H           4.7971221    -4.2149564    -3.1154692
H           3.0590887    -4.1634172    -3.5233540
H           3.6256716    -5.1311442    -2.1270567
C           5.7897418     1.2106406    -0.2825657
H           6.6388898     1.8830365    -0.2365980
C           6.0813064    -0.1909162    -0.0918206
N           4.9470056    -1.0574613    -0.1125157
C           5.2441168    -2.4056640     0.3834472
H           5.9169116    -2.3039776     1.2366241
H           5.7506842    -3.0002412    -0.3782308
H           4.3209070    -2.8962535     0.6862877
C           3.6705228    -0.6282815    -0.4305570
C           3.4363202     0.7274665    -0.5416080
H           2.4439844     1.0712925    -0.8026715
C           4.5119749     1.6466694    -0.4751643
H           4.3079031     2.7080917    -0.5953061
O           7.1970590    -0.6612358     0.1321090
29
428_C13H13NO2_1-0-23-24 (-15,) energy =    -708.3913236
C           2.5186122    -1.5824413    -0.4405251
C           1.2371222    -1.1245728    -0.0773938
H           1.1590738    -0.1727737     0.4364754
C           0.0861099    -1.8901179    -0.2337791
H          -0.8684340    -1.5090374     0.1157292
C           0.1759981    -3.1418557    -0.8372858
H          -0.7060762    -3.7650329    -0.9562826
C           1.4026664    -3.5883663    -1.3228299
H           1.4539018    -4.5347955    -1.8473178
C           2.5501347    -2.7946073    -1.1916035
O           3.7196389    -3.1024699    -1.8147640
C           3.8002862    -4.2766466    -2.6102496
H           4.8125291    -4.2856014    -3.0173451
H           3.0760506    -4.2519264    -3.4339163
H           3.6412192    -5.1829944    -2.0121585
C           5.7902511     1.2227487    -0.2754592
H           6.6392456     1.8959447    -0.2401105
C           6.0933380    -0.1869864    -0.2136459
N           4.9608852    -1.0576452    -0.2051313
C           5.2952797    -2.4002617     0.2878382
H           5.9941898    -2.2785870     1.1177635
H           5.7877460    -2.9948174    -0.4817138
H           4.3924163    -2.9019511     0.6298588
C           3.6619100    -0.6216730    -0.4327055
C           3.4246101     0.7397722    -0.3803731
H           2.4252966     1.1114911    -0.5611740
C           4.4996595     1.6593170    -0.3190031
H           4.2809446     2.7245577    -0.3255195
O           7.2220757    -0.6645534    -0.0952091
29
428_C13H13NO2_1-0-23-24 (0,) energy =    -708.3802441
C           2.5516634    -1.4750570    -0.8352341
C           1.2434856    -0.9800242    -0.6370716
H           1.1186280     0.0681349    -0.3928321
C           0.0933899    -1.7188331    -0.8865144
H          -0.8807315    -1.2521506    -0.7782942
C           0.2082643    -3.0521149    -1.2714764
H          -0.6735981    -3.6464050    -1.4939981
C           1.4679312    -3.6385447    -1.3258517
H           1.5527587    -4.6956824    -1.5455997
C           2.6167759    -2.8927893    -1.0223368
O           3.8186404    -3.4957661    -0.8250829
C           3.9324913    -4.9055673    -0.9553029
H           4.9716194    -5.1373839    -0.7164401
H           3.7124694    -5.2380908    -1.9777692
H           3.2713115    -5.4267422    -0.2520769
C           5.8916350     0.9180359     0.5214533
H           6.7551632     1.4797926     0.8590257
C           6.1609527    -0.2420722    -0.2933351
N           5.0090986    -0.9296060    -0.7857061
C           5.3152761    -1.6747974    -2.0172808
H           5.8322467    -2.6094515    -1.8046763
H           5.9841765    -1.0501038    -2.6139742
H           4.3985978    -1.8660649    -2.5705925
C           3.7143345    -0.6765514    -0.3326855
C           3.5139674     0.5299124     0.3172438
H           2.5292138     0.7866864     0.6808451
C           4.6092474     1.3103595     0.7617441
H           4.4089865     2.2209050     1.3215289
O           7.2794096    -0.6021973    -0.6611297
29
428_C13H13NO2_1-0-23-24 (15,) energy =    -708.3913251
C           2.5762527    -1.4935989    -0.8353875
C           1.2839456    -0.9386942    -0.7594071
H           1.1923105     0.1273891    -0.5827431
C           0.1291300    -1.6681863    -1.0233232
H          -0.8378225    -1.1750455    -1.0047398
C           0.2309944    -3.0267435    -1.3113568
H          -0.6553604    -3.6135680    -1.5361656
C           1.4769122    -3.6483614    -1.2801923
H           1.5422060    -4.7173565    -1.4428835
C           2.6303493    -2.9116439    -0.9791876
O           3.8319702    -3.5076725    -0.7518297
C           3.9391897    -4.9213959    -0.8406341
H           4.9761478    -5.1526724    -0.5922809
H           3.7192701    -5.2815388    -1.8537563
H           3.2730136    -5.4185533    -0.1246731
C           5.8918805     0.9077934     0.5204624
H           6.7515468     1.4829897     0.8450578
C           6.1579536    -0.1667726    -0.4056802
N           5.0081956    -0.8787611    -0.8654331
C           5.2785152    -1.6377790    -2.0935360
H           5.8108089    -2.5644215    -1.8784718
H           5.9201575    -1.0198776    -2.7249329
H           4.3434693    -1.8519354    -2.6069377
C           3.7376111    -0.6999891    -0.3339565
C           3.5281597     0.4073063     0.4674782
H           2.5513447     0.5696671     0.9022537
C           4.6172736     1.1988956     0.9062260
H           4.4236534     2.0356723     1.5732713
O           7.2649220    -0.4482153    -0.8655996
29
428_C13H13NO2_1-0-23-24 (30,) energy =    -708.3992235
C           2.5831828    -1.5045131    -0.8172215
C           1.3134323    -0.9050954    -0.8596167
H           1.2503590     0.1709496    -0.7326355
C           0.1555286    -1.6273009    -1.1393935
H          -0.8004114    -1.1165640    -1.2022646
C           0.2414751    -3.0024323    -1.3393143
H          -0.6480483    -3.5828793    -1.5683025
C           1.4712167    -3.6503654    -1.2251254
H           1.5177155    -4.7269531    -1.3375809
C           2.6276464    -2.9214248    -0.9231436
O           3.8298927    -3.5099593    -0.6720818
C           3.9318447    -4.9260129    -0.7231462
H           4.9673616    -5.1557536    -0.4675624
H           3.7109746    -5.3113679    -1.7268020
H           3.2625706    -5.4016098     0.0046408
C           5.8941030     0.8910071     0.5215934
H           6.7535168     1.4704085     0.8394059
C           6.1382662    -0.0965013    -0.5035377
N           4.9885885    -0.8219532    -0.9388393
C           5.2216518    -1.5837718    -2.1706082
H           5.7820347    -2.4969863    -1.9647111
H           5.8218051    -0.9618961    -2.8372523
H           4.2692699    -1.8271080    -2.6373100
C           3.7461146    -0.7035405    -0.3413653
C           3.5523885     0.2993405     0.5869949
H           2.5866339     0.3913390     1.0665787
C           4.6421255     1.0918738     1.0236398
H           4.4709422     1.8550615     1.7792567
O           7.2246841    -0.3073240    -1.0434665
29
428_C13H13NO2_1-0-23-24 (45,) energy =    -708.4036234
C           2.5854469    -1.5265365    -0.7817080
C           1.3427182    -0.8994280    -0.9424309
H           1.2992281     0.1823334    -0.8588847
C           0.1882232    -1.6208584    -1.2466359
H          -0.7552896    -1.1029526    -1.3889737
C           0.2634343    -3.0055942    -1.3684116
H          -0.6235926    -3.5848390    -1.6100496
C           1.4765789    -3.6680421    -1.1692969
H           1.5119154    -4.7488099    -1.2394260
C           2.6298763    -2.9413325    -0.8543534
O           3.8321325    -3.5180451    -0.5734517
C           3.9341819    -4.9350380    -0.5887287
H           4.9667815    -5.1594071    -0.3171649
H           3.7227138    -5.3442583    -1.5849818
H           3.2569712    -5.3925477     0.1434275
C           5.9151813     0.8477314     0.5151477
H           6.7809206     1.4250744     0.8193497
C           6.1139520    -0.0461131    -0.6028203
N           4.9570364    -0.7756870    -1.0086640
C           5.1386384    -1.5248972    -2.2552964
H           5.6972314    -2.4455908    -2.0741403
H           5.7189499    -0.9038339    -2.9389932
H           4.1665969    -1.7598633    -2.6855332
C           3.7531650    -0.7165160    -0.3364486
C           3.6026708     0.1728960     0.7047737
H           2.6591880     0.2049832     1.2348680
C           4.7027842     0.9585347     1.1306669
H           4.5738220     1.6437567     1.9652995
O           7.1676455    -0.1877079    -1.2240157
29
428_C13H13NO2_1-0-23-24 (60,) energy =    -708.4050413
C           2.5724764    -1.5151744    -0.7575143
C           1.3614097    -0.8816594    -1.0545525
H           1.3255960     0.2034104    -1.0200325
C           0.2224063    -1.6110575    -1.4021119
H          -0.7037259    -1.0958943    -1.6379437
C           0.2917239    -3.0006156    -1.4444674
H          -0.5838301    -3.5851022    -1.7139273
C           1.4833361    -3.6630441    -1.1373805
H           1.5144980    -4.7460438    -1.1629615
C           2.6211194    -2.9285697    -0.7881578
O           3.8170724    -3.4881545    -0.4490173
C           3.9254586    -4.9045215    -0.4230305
H           4.9501377    -5.1169552    -0.1144170
H           3.7457295    -5.3409301    -1.4139947
H           3.2279455    -5.3458420     0.3001052
C           5.9297249     0.8141507     0.5333998
H           6.8042352     1.3811802     0.8320353
C           6.0717929     0.0252942    -0.6697995
N           4.9022555    -0.6905728    -1.0623182
C           5.0291876    -1.4048675    -2.3353580
H           5.5571117    -2.3513530    -2.1918255
H           5.6165473    -0.7850419    -3.0129895
H           4.0394651    -1.5949147    -2.7480647
C           3.7412506    -0.7009201    -0.3196941
C           3.6501846     0.0632633     0.8198869
H           2.7356576     0.0349146     1.3992253
C           4.7645082     0.8321826     1.2428548
H           4.6852588     1.4303698     2.1476536
O           7.0902494    -0.0494798    -1.3577487
29
428_C13H13NO2_1-0-23-24 (75,) energy =    -708.4045965
C           2.7356914    -1.5594992    -0.8607468
C           1.5743839    -0.9104238    -1.2880789
H           1.5666860     0.1757765    -1.3113441
C           0.4407579    -1.6296316    -1.6752104
H          -0.4516985    -1.1060283    -2.0040605
C           0.4710959    -3.0205876    -1.6319755
H          -0.4020068    -3.5963504    -1.9270633
C           1.6197049    -3.6958634    -1.2098936
H           1.6220541    -4.7792931    -1.1807086
C           2.7535219    -2.9713463    -0.8281891
O           3.9217109    -3.5381079    -0.4098406
C           3.9928045    -4.9531378    -0.3039928
H           4.9971732    -5.1723035     0.0615034
H           3.8460162    -5.4384722    -1.2775001
H           3.2529355    -5.3386979     0.4089627
C           6.1512035     0.6956958     0.3919171
H           7.0399331     1.2507174     0.6704044
C           6.2007536     0.0426447    -0.8982593
N           5.0138249    -0.6691557    -1.2524047
C           5.0261866    -1.3277342    -2.5629301
H           5.1756747    -2.4049708    -2.4446447
H           5.8602823    -0.9072520    -3.1216849
H           4.0833783    -1.1477821    -3.0824056
C           3.9196929    -0.7638344    -0.4207715
C           3.9196435    -0.1380447     0.8005778
H           3.0520767    -0.2337604     1.4418381
C           5.0588901     0.6063178     1.2037892
H           5.0566898     1.1018813     2.1719100
O           7.1616487     0.0739425    -1.6673735
29
428_C13H13NO2_1-0-23-24 (90,) energy =    -708.4034130
C           2.7667764    -1.5610490    -0.8703684
C           1.6509027    -0.9235196    -1.4177458
H           1.6644714     0.1591850    -1.5109961
C           0.5283595    -1.6483528    -1.8253017
H          -0.3318215    -1.1337995    -2.2425481
C           0.5268914    -3.0337570    -1.6860555
H          -0.3391354    -3.6133938    -1.9941977
C           1.6342643    -3.6980870    -1.1525557
H           1.6150929    -4.7775404    -1.0568505
C           2.7586608    -2.9673781    -0.7523188
O           3.8973914    -3.5238315    -0.2487663
C           3.9503050    -4.9335735    -0.0842174
H           4.9372533    -5.1463317     0.3295153
H           3.8375055    -5.4562886    -1.0428710
H           3.1794004    -5.2855458     0.6133298
C           6.1772836     0.7155441     0.3575413
H           7.0587073     1.2890056     0.6215180
C           6.1348513     0.2262521    -1.0034543
N           4.9637464    -0.5263654    -1.3285406
C           4.9020454    -1.0811843    -2.6855272
H           4.8840348    -2.1738581    -2.6454618
H           5.7990458    -0.7425244    -3.2008558
H           4.0108445    -0.7264691    -3.2087464
C           3.9519829    -0.7672018    -0.4247264
C           4.0389311    -0.2947334     0.8592919
H           3.2345762    -0.5025952     1.5542407
C           5.1757038     0.4615232     1.2477909
H           5.2428839     0.8385325     2.2657135
O           7.0120532     0.4154553    -1.8463320
29
428_C13H13NO2_1-0-23-24 (105,) energy =    -708.4026589
C           3.2166979    -2.3859152    -0.5046292
C           3.0270917    -3.2302114     0.5940848
H           3.6948809    -3.1327801     1.4460271
C           2.0160095    -4.1920120     0.6070828
H           1.8910674    -4.8412956     1.4682153
C           1.1769470    -4.3102011    -0.4985096
H           0.3849361    -5.0541958    -0.5071695
C           1.3398937    -3.4779690    -1.6078036
H           0.6738917    -3.5836855    -2.4562157
C           2.3554186    -2.5134852    -1.6169676
O           2.5775340    -1.6497616    -2.6477398
C           1.7320864    -1.7172969    -3.7862623
H           2.0875442    -0.9401342    -4.4647545
H           0.6848008    -1.5191518    -3.5234612
H           1.8021690    -2.6935785    -4.2833215
C           6.4634255     0.4088809    -0.3902812
H           7.2694595     1.1298700    -0.3129207
C           5.3023153     0.6727824     0.4285040
N           4.2446254    -0.2763622     0.2948927
C           3.0392491     0.0456321     1.0665788
H           2.9013616     1.1265624     1.0381276
H           3.1589830    -0.2477265     2.1149424
H           2.1791988    -0.4668640     0.6403458
C           4.3325936    -1.3936123    -0.5088626
C           5.4576036    -1.6082251    -1.2652167
H           5.5093160    -2.4909190    -1.8904318
C           6.5324667    -0.6853572    -1.2031578
H           7.4206392    -0.8616513    -1.8055348
O           5.1682793     1.6279935     1.1940686
29
428_C13H13NO2_1-0-23-24 (120,) energy =    -708.4021740
C           3.1684869    -2.3214824    -0.5262606
C           2.9057711    -3.0821411     0.6203792
H           3.5225446    -2.9233135     1.5005563
C           1.8970001    -4.0441880     0.6480577
H           1.7225841    -4.6262533     1.5477820
C           1.1236998    -4.2496317    -0.4920936
H           0.3323636    -4.9943043    -0.4909168
C           1.3540673    -3.5024045    -1.6481923
H           0.7371265    -3.6718903    -2.5227512
C           2.3700317    -2.5384144    -1.6743693
O           2.6429561    -1.7598651    -2.7595308
C           1.8470975    -1.9103808    -3.9255649
H           2.2364431    -1.1867644    -4.6435749
H           0.7907597    -1.6900747    -3.7240077
H           1.9324273    -2.9209302    -4.3457636
C           6.4496958     0.4339856    -0.3999572
H           7.2742553     1.1323734    -0.3117521
C           5.3788400     0.5995147     0.5551160
N           4.2894621    -0.3121158     0.4051981
C           3.1500478    -0.0319074     1.2870431
H           3.0672274     1.0503611     1.3875325
H           3.3144340    -0.4450570     2.2876776
H           2.2407038    -0.4527948     0.8628798
C           4.2804444    -1.3289492    -0.5306741
C           5.3191549    -1.4417646    -1.4230558
H           5.2970233    -2.2391830    -2.1544071
C           6.4117616    -0.5426332    -1.3527407
H           7.2304322    -0.6451758    -2.0612507
O           5.3378455     1.4542371     1.4408454
29
428_C13H13NO2_1-0-23-24 (135,) energy =    -708.4002464
C           3.1570374    -2.3023820    -0.5356179
C           2.8066507    -2.9834840     0.6403095
H           3.3810349    -2.7905538     1.5406416
C           1.7834116    -3.9284128     0.6758075
H           1.5541995    -4.4474976     1.6013862
C           1.0658419    -4.1959553    -0.4868658
H           0.2623736    -4.9274056    -0.4823537
C           1.3710325    -3.5243113    -1.6707700
H           0.7957631    -3.7367032    -2.5639412
C           2.4031388    -2.5781467    -1.7062694
O           2.7240362    -1.8740151    -2.8286608
C           1.9498137    -2.0642330    -4.0036885
H           2.3680162    -1.3812608    -4.7449603
H           0.8941388    -1.8158720    -3.8349712
H           2.0250231    -3.0940727    -4.3760365
C           6.4328306     0.4689268    -0.4000585
H           7.2617720     1.1615307    -0.3078461
C           5.4453061     0.5236322     0.6517721
N           4.3411456    -0.3705832     0.4982002
C           3.2502417    -0.1150116     1.4484126
H           3.2065931     0.9615079     1.6150839
H           3.4434575    -0.5871248     2.4169054
H           2.3095786    -0.4808902     1.0424054
C           4.2602507    -1.3024528    -0.5256752
C           5.2106326    -1.2891631    -1.5207846
H           5.1377224    -2.0086647    -2.3240259
C           6.3048660    -0.3931234    -1.4496867
H           7.0539402    -0.4087363    -2.2379497
O           5.4764525     1.2883779     1.6166857
29
428_C13H13NO2_1-0-23-24 (150,) energy =    -708.3957545
C           3.1572579    -2.3049190    -0.5489635
C           2.7204133    -2.9071344     0.6442845
H           3.2650561    -2.6989112     1.5573862
C           1.6733878    -3.8237600     0.6897397
H           1.3935461    -4.2803151     1.6341483
C           0.9983290    -4.1421814    -0.4843133
H           0.1761287    -4.8523722    -0.4755044
C           1.3760564    -3.5458688    -1.6862647
H           0.8344075    -3.7932503    -2.5910288
C           2.4321884    -2.6270281    -1.7325875
O           2.7928229    -1.9974527    -2.8869808
C           2.0309964    -2.2185190    -4.0649875
H           2.4774548    -1.5772110    -4.8267718
H           0.9798922    -1.9374782    -3.9227838
H           2.0867357    -3.2641784    -4.3935393
C           6.4107354     0.5116112    -0.4120976
H           7.2392111     1.2046649    -0.3192441
C           5.5126867     0.4435373     0.7158300
N           4.3983686    -0.4394080     0.5636035
C           3.3516370    -0.1955842     1.5680395
H           3.3569192     0.8723087     1.7879748
H           3.5581479    -0.7183912     2.5070135
H           2.3826518    -0.5012875     1.1795167
C           4.2507786    -1.2935282    -0.5275996
C           5.1013390    -1.1365906    -1.6007235
H           4.9896088    -1.7843779    -2.4560996
C           6.1887652    -0.2316083    -1.5326882
H           6.8595347    -0.1502840    -2.3848287
O           5.6152766     1.1186674     1.7408380
29
428_C13H13NO2_1-0-23-24 (165,) energy =    -708.3884275
C           3.1413297    -2.2900777    -0.5695317
C           2.6264307    -2.8210471     0.6299560
H           3.1425372    -2.6032427     1.5541323
C           1.5586678    -3.7117707     0.6839492
H           1.2349858    -4.1070845     1.6418753
C           0.9229458    -4.0839244    -0.4946344
H           0.0845930    -4.7747842    -0.4826297
C           1.3705465    -3.5651342    -1.7068066
H           0.8651204    -3.8534916    -2.6199794
C           2.4471029    -2.6706922    -1.7616263
O           2.8484558    -2.1280365    -2.9465533
C           2.1182149    -2.4096099    -4.1318372
H           2.5984898    -1.8225372    -4.9165162
H           1.0686730    -2.1041697    -4.0392472
H           2.1670765    -3.4738040    -4.3946675
C           6.3961970     0.5490685    -0.4254133
H           7.2340610     1.2302670    -0.3291411
C           5.6070214     0.3391885     0.7645766
N           4.4652104    -0.5086700     0.6120536
C           3.4714370    -0.2660740     1.6730020
H           3.5591462     0.7821245     1.9600472
H           3.6691727    -0.8587826     2.5712872
H           2.4701106    -0.4742340     1.3016881
C           4.2281628    -1.2666350    -0.5429777
C           4.9612832    -0.9494615    -1.6689581
H           4.7981219    -1.5077801    -2.5744697
C           6.0491458    -0.0427950    -1.6007646
H           6.6235369     0.1519639    -2.5034888
O           5.8086699     0.8952789     1.8447162
29
428_C13H13NO2_1-0-23-24 (180,) energy =    -708.3797875
C           3.0343105    -2.1895228    -0.5603069
C           2.4538691    -2.6830284     0.6282056
H           2.9106375    -2.4403342     1.5717447
C           1.3882994    -3.5768008     0.6707061
H           1.0212948    -3.9240958     1.6316773
C           0.8151992    -4.0142016    -0.5153044
H          -0.0234339    -4.7046646    -0.5147864
C           1.3408540    -3.5645462    -1.7221607
H           0.8996123    -3.9119486    -2.6474647
C           2.4183243    -2.6708205    -1.7662532
O           2.8987760    -2.2452676    -2.9704834
C           2.3037406    -2.6987376    -4.1777193
H           2.8610379    -2.2089577    -4.9781590
H           1.2477808    -2.4086353    -4.2408106
H           2.3922705    -3.7865981    -4.2875949
C           6.3655589     0.5847705    -0.4411085
H           7.2423847     1.2168429    -0.3583534
C           5.7368007     0.2010350     0.7995139
N           4.5329182    -0.5643288     0.6812541
C           3.6735431    -0.3646158     1.8640206
H           3.9260917     0.6115996     2.2780673
H           3.8635963    -1.0982626     2.6538129
H           2.6250827    -0.3860064     1.5716494
C           4.1169281    -1.1517250    -0.5302523
C           4.6986519    -0.6550395    -1.6813772
H           4.4026098    -1.0503489    -2.6343258
C           5.8165877     0.2171045    -1.6289025
H           6.2555515     0.5539167    -2.5652455
O           6.1132101     0.5718007     1.9118392
