25
092_C11H12N2_9-0-18-16 (-165,) energy =    -535.8937329
C           3.0021702    -1.2956303    -1.4747791
H           2.9896506    -2.3229305    -1.0926735
H           3.4088204    -1.3397206    -2.4932281
C           5.6688295     1.0456618     0.9892139
H           6.3457319     1.6256886     1.6104879
C           4.6182018     0.3323819     1.5734808
H           4.4777199     0.3542484     2.6507923
C           3.7525442    -0.4144310     0.7763274
H           2.9366885    -0.9697844     1.2332766
C           3.9165849    -0.4505412    -0.6155949
C           4.9752057     0.2599317    -1.1896999
H           5.1177623     0.2317201    -2.2676355
C           5.8477704     1.0052061    -0.3933595
H           6.6648802     1.5531289    -0.8546310
C          -0.5005847    -0.9660316    -2.2209467
H          -1.4764831    -1.2819452    -2.5654414
C           0.6203238    -1.7266862    -2.0435821
H           0.8224958    -2.7780538    -2.1907186
N           1.5947616    -0.8698547    -1.5498857
C           1.0171313     0.3876353    -1.5049270
C           1.6871088     1.6622672    -1.0938288
H           2.0206358     1.6494909    -0.0511325
H           0.9514227     2.4600886    -1.2165310
H           2.5615991     1.8964384    -1.7106583
N          -0.2482886     0.3425023    -1.8824320
25
092_C11H12N2_9-0-18-16 (-150,) energy =    -535.8960604
C           3.0495771    -1.1557276    -1.6368154
H           3.1357521    -2.2309837    -1.4431734
H           3.3987638    -0.9907462    -2.6645860
C           5.6533999     0.9359831     1.1073079
H           6.3145372     1.4523858     1.7978480
C           4.5322699     0.2526821     1.5871944
H           4.3207250     0.2346593     2.6529509
C           3.6847892    -0.4110618     0.7018040
H           2.8119939    -0.9394505     1.0775156
C           3.9393986    -0.3924635    -0.6765847
C           5.0635843     0.2921405    -1.1474311
H           5.2717496     0.3119036    -2.2149540
C           5.9186746     0.9520469    -0.2616511
H           6.7872074     1.4815813    -0.6437603
C          -0.5368185    -1.0669789    -1.9331091
H          -1.5334898    -1.4446410    -2.1194758
C           0.6317321    -1.7708887    -1.8501759
H           0.8612994    -2.8227401    -1.9425224
N           1.6193156    -0.8414111    -1.5540255
C           0.9953094     0.3927813    -1.5290084
C           1.6787470     1.7075563    -1.3186291
H           2.1123116     1.8023933    -0.3173738
H           0.9265056     2.4882912    -1.4501774
H           2.4871235     1.8781454    -2.0394496
N          -0.3040060     0.2743425    -1.7321245
25
092_C11H12N2_9-0-18-16 (-135,) energy =    -535.8978932
C           3.0710742    -1.0398916    -1.7469510
H           3.2144741    -2.1251656    -1.7003673
H           3.3832738    -0.7249713    -2.7510987
C           5.6277903     0.8157422     1.2066871
H           6.2768386     1.2730263     1.9484850
C           4.4663373     0.1487379     1.6057442
H           4.2104803     0.0846405     2.6599575
C           3.6325774    -0.4382034     0.6549384
H           2.7271677    -0.9518349     0.9679402
C           3.9443839    -0.3590465    -0.7088690
C           5.1066362     0.3127035    -1.0999812
H           5.3562394     0.3838615    -2.1565140
C           5.9471809     0.8949015    -0.1486967
H           6.8456072     1.4155739    -0.4689953
C          -0.5342596    -1.1480136    -1.6768794
H          -1.5264630    -1.5777631    -1.7146374
C           0.6686211    -1.7994214    -1.6798083
H           0.9365522    -2.8455092    -1.7158287
N           1.6357320    -0.8094347    -1.5878684
C           0.9625480     0.3957719    -1.5763326
C           1.6262860     1.7356517    -1.5449213
H           2.1691542     1.9121450    -0.6097768
H           0.8472031     2.4940547    -1.6464790
H           2.3428925     1.8630097    -2.3662918
N          -0.3445457     0.2139092    -1.6138860
25
092_C11H12N2_9-0-18-16 (-120,) energy =    -535.8990845
C           3.0941691    -0.9161370    -1.8354302
H           3.2773379    -1.9935550    -1.9152941
H           3.3802034    -0.4790404    -2.8000256
C           5.6182011     0.6899923     1.2906596
H           6.2597819     1.0839914     2.0741059
C           4.4209537     0.0495381     1.6192848
H           4.1284748    -0.0567400     2.6605039
C           3.5957248    -0.4558188     0.6149654
H           2.6621618    -0.9480339     0.8743984
C           3.9545630    -0.3218833    -0.7323224
C           5.1519643     0.3258521    -1.0535977
H           5.4369152     0.4423180    -2.0972274
C           5.9825333     0.8263978    -0.0491108
H           6.9082842     1.3295003    -0.3152393
C          -0.4889620    -1.1791364    -1.4537616
H          -1.4590894    -1.6472727    -1.3526784
C           0.7366047    -1.7838924    -1.5343955
H           1.0474665    -2.8185185    -1.5214876
N           1.6575492    -0.7534380    -1.6392754
C           0.9370326     0.4213892    -1.6385465
C           1.5555348     1.7758962    -1.7708770
H           2.2148733     2.0156226    -0.9287131
H           0.7501876     2.5122812    -1.8062759
H           2.1500554     1.8709485    -2.6891968
N          -0.3573461     0.1895105    -1.5204117
25
092_C11H12N2_9-0-18-16 (-105,) energy =    -535.8996953
C           3.1457862    -0.7980051    -1.9069455
H           3.3713569    -1.8518683    -2.1073294
H           3.4064176    -0.2470862    -2.8178550
C           5.6240947     0.5588262     1.3723464
H           6.2546751     0.8907065     2.1926418
C           4.3906603    -0.0414850     1.6334965
H           4.0576595    -0.1780325     2.6589090
C           3.5783137    -0.4670838     0.5819902
H           2.6164045    -0.9272820     0.7907089
C           3.9890552    -0.2935769    -0.7450636
C           5.2230269     0.3158664    -0.9992461
H           5.5480330     0.4644231    -2.0271285
C           6.0391586     0.7366024     0.0518498
H           6.9933627     1.2106843    -0.1620661
C          -0.3869799    -1.2139709    -1.2742727
H          -1.3192636    -1.7165362    -1.0533755
C           0.8585964    -1.7671612    -1.4117030
H           1.2242615    -2.7815890    -1.3447148
N           1.7070630    -0.7094451    -1.6965456
C           0.9304697     0.4272770    -1.7164188
C           1.4731559     1.7907232    -2.0007592
H           2.2439085     2.0875589    -1.2794729
H           0.6479387     2.5032607    -1.9443005
H           1.9163683     1.8587054    -3.0034416
N          -0.3354813     0.1481592    -1.4661674
25
092_C11H12N2_9-0-18-16 (-90,) energy =    -535.8995827
C           3.1535932    -0.6052783    -1.9736508
H           3.4523965    -1.5904119    -2.3521186
H           3.3451555     0.1049845    -2.7851788
C           5.6415779     0.3965882     1.4282464
H           6.2766322     0.6437953     2.2745758
C           4.3127111     0.0248788     1.6306297
H           3.9067773    -0.0182406     2.6377969
C           3.4940332    -0.2922233     0.5436871
H           2.4601885    -0.5794524     0.7102218
C           3.9979988    -0.2379454    -0.7592485
C           5.3322040     0.1422704    -0.9559563
H           5.7335209     0.1957646    -1.9664262
C           6.1505037     0.4541903     0.1286114
H           7.1827563     0.7487727    -0.0411032
C          -0.2824560    -1.3196652    -1.1364927
H          -1.1473549    -1.8930740    -0.8304273
C           0.9986320    -1.7636568    -1.3315926
H           1.4632528    -2.7344823    -1.2378557
N           1.7200393    -0.6521270    -1.7365395
C           0.8412423     0.4079629    -1.7494944
C           1.2358322     1.8012595    -2.1216231
H           2.0202493     2.1976229    -1.4650611
H           0.3538947     2.4384747    -2.0325518
H           1.6030389     1.8677396    -3.1543923
N          -0.3734255     0.0292258    -1.3982210
25
092_C11H12N2_9-0-18-16 (-75,) energy =    -535.8993654
C           2.5195922     1.2015245    -1.1288474
H           2.7482324     1.9753410    -1.8710375
H           1.9463474     1.6958047    -0.3368906
C           6.2048897    -0.3114728     0.5684634
H           7.1302089    -0.6807991     1.0021040
C           5.1363110    -1.1810488     0.3486390
H           5.2262268    -2.2320839     0.6099281
C           3.9467599    -0.7095137    -0.2109290
H           3.1232722    -1.3946027    -0.3895687
C           3.8146340     0.6385182    -0.5585724
C           4.8937257     1.5044129    -0.3410861
H           4.8052277     2.5538440    -0.6160215
C           6.0803870     1.0355651     0.2215224
H           6.9094008     1.7198459     0.3816148
C           0.8158066    -1.2709933    -3.1287670
H           0.6162348    -1.9252719    -3.9669987
C           1.8431620    -0.3780216    -2.9808332
H           2.6792992    -0.1092602    -3.6095527
N           1.6452796     0.2163900    -1.7457090
C           0.5132690    -0.3550997    -1.2070369
C          -0.0507519     0.0129441     0.1291439
H           0.6692992    -0.1352049     0.9436050
H          -0.9160922    -0.6262337     0.3149403
H          -0.3854919     1.0579720     0.1676418
N          -0.0065268    -1.2520615    -2.0240921
25
092_C11H12N2_9-0-18-16 (-60,) energy =    -535.8992597
C           2.4610220     1.1376395    -0.8402014
H           2.5769768     2.0624831    -1.4188600
H           1.8851708     1.3985003     0.0535285
C           6.3564107    -0.3028628     0.3731034
H           7.3340803    -0.6577814     0.6876126
C           5.2462110    -1.1483636     0.4436002
H           5.3580606    -2.1641723     0.8131948
C           3.9915881    -0.6948828     0.0387079
H           3.1336472    -1.3604302     0.0840149
C           3.8302058     0.6098284    -0.4451683
C           4.9475605     1.4476484    -0.5193413
H           4.8360695     2.4601668    -0.9017865
C           6.2041192     0.9968968    -0.1093686
H           7.0629240     1.6594802    -0.1754800
C           0.9554615    -1.1607691    -3.1824573
H           0.8517009    -1.7663058    -4.0730343
C           2.0053555    -0.3573136    -2.8269735
H           2.9458037    -0.1229705    -3.3031582
N           1.6565926     0.1911915    -1.6040090
C           0.4145838    -0.3119076    -1.2828326
C          -0.3371455     0.0399489    -0.0372930
H           0.2125433    -0.2197162     0.8764114
H          -1.2722695    -0.5235151    -0.0436124
H          -0.5838396     1.1083067     0.0159547
N          -0.0280068    -1.1304001    -2.2187889
25
092_C11H12N2_9-0-18-16 (-45,) energy =    -535.8989942
C           2.4052686     1.0218931    -0.5921273
H           2.4226948     2.0343791    -1.0157649
H           1.8531246     1.0819009     0.3510866
C           6.4552214    -0.2734867     0.1937048
H           7.4724672    -0.5957433     0.3987985
C           5.3816616    -1.1293296     0.4571336
H           5.5625880    -2.1188918     0.8681138
C           4.0767612    -0.7172395     0.1950287
H           3.2452796    -1.3887806     0.3938860
C           3.8256938     0.5554173    -0.3366599
C           4.9056302     1.4029382    -0.6016457
H           4.7223763     2.3910206    -1.0181016
C           6.2148356     0.9936443    -0.3359526
H           7.0434420     1.6640133    -0.5477011
C           1.0406768    -1.1119865    -3.1733322
H           1.0024386    -1.6910554    -4.0864813
C           2.1044387    -0.4210217    -2.6578112
H           3.1204570    -0.2803021    -2.9936696
N           1.6477155     0.1355502    -1.4744004
C           0.3297532    -0.2432015    -1.3406827
C          -0.5455521     0.1584354    -0.1953605
H          -0.1545545    -0.1793569     0.7732870
H          -1.5233001    -0.3034441    -0.3460735
H          -0.6864654     1.2453328    -0.1345198
N          -0.0580298    -0.9986306    -2.3511815
25
092_C11H12N2_9-0-18-16 (-30,) energy =    -535.8984760
C           2.3574547     0.8694185    -0.3869457
H           2.2887114     1.9321099    -0.6539568
H           1.8365656     0.7451041     0.5680886
C           6.5132081    -0.2272640     0.0633437
H           7.5578121    -0.5019013     0.1818950
C           5.5067323    -1.1158219     0.4527606
H           5.7669135    -2.0825052     0.8753693
C           4.1669473    -0.7634232     0.3036049
H           3.3863839    -1.4584634     0.6035679
C           3.8134892     0.4802483    -0.2388964
C           4.8272977     1.3615392    -0.6276361
H           4.5638448     2.3285492    -1.0501152
C           6.1715357     1.0121529    -0.4767130
H           6.9479628     1.7082280    -0.7822508
C           1.0985488    -1.0914221    -3.1624365
H           1.1047615    -1.6543455    -4.0864085
C           2.1631040    -0.5167497    -2.5200754
H           3.2171759    -0.4729253    -2.7447957
N           1.6361714     0.0696782    -1.3811146
C           0.2811204    -0.1765515    -1.3992659
C          -0.6648991     0.2999040    -0.3431998
H          -0.4192730    -0.0962213     0.6511485
H          -1.6657608    -0.0461707    -0.6088233
H          -0.6896096     1.3946341    -0.2643540
N          -0.0670385    -0.8781078    -2.4618501
25
092_C11H12N2_9-0-18-16 (-15,) energy =    -535.8979371
C           2.3088247     0.6979732    -0.2276193
H           2.1584084     1.7796583    -0.3350781
H           1.8259086     0.3983841     0.7093180
C           6.5384766    -0.1591232    -0.0312557
H           7.6022631    -0.3741293     0.0215775
C           5.6115403    -1.0864587     0.4516981
H           5.9522808    -2.0243662     0.8817107
C           4.2469953    -0.8084253     0.3878246
H           3.5279284    -1.5323710     0.7639458
C           3.7899034     0.3974774    -0.1611617
C           4.7260097     1.3195521    -0.6422999
H           4.3817808     2.2589697    -1.0687122
C           6.0935740     1.0448539    -0.5781006
H           6.8087600     1.7717089    -0.9533754
C           1.1234016    -1.0657558    -3.1710963
H           1.1548293    -1.6097432    -4.1058333
C           2.1807277    -0.6145555    -2.4253842
H           3.2487814    -0.6786207    -2.5580673
N           1.6172308     0.0097151    -1.3249650
C           0.2516329    -0.0945905    -1.4663505
C          -0.7239649     0.4647548    -0.4812291
H          -0.6115598     0.0221313     0.5177315
H          -1.7313317     0.2446228    -0.8400258
H          -0.6283284     1.5529775    -0.3692934
N          -0.0716923    -0.7403181    -2.5715967
25
092_C11H12N2_9-0-18-16 (0,) energy =    -535.8977230
C           2.2858081     0.4937353    -0.0930734
H           2.0560468     1.5644544    -0.0353750
H           1.8511396     0.0236411     0.7973270
C           6.5670189    -0.0781752    -0.0947706
H           7.6442142    -0.2207006    -0.0923429
C           5.7319857    -1.0413777     0.4748267
H           6.1565904    -1.9359314     0.9221681
C           4.3493281    -0.8547283     0.4751596
H           3.7013054    -1.6060219     0.9205607
C           3.7846523     0.2938837    -0.0933357
C           4.6308243     1.2545234    -0.6613119
H           4.2024234     2.1508725    -1.1037792
C           6.0138989     1.0709431    -0.6631951
H           6.6586804     1.8259742    -1.1045799
C           1.1416174    -1.0263527    -3.1881153
H           1.1813954    -1.5435860    -4.1376158
C           2.1853199    -0.7156952    -2.3559533
H           3.2467598    -0.8933407    -2.4182994
N           1.6156259    -0.0577083    -1.2787906
C           0.2608852    -0.0058486    -1.5176054
C          -0.7139290     0.6314050    -0.5806274
H          -0.7179293     0.1530099     0.4080798
H          -1.7124044     0.5344309    -1.0114396
H          -0.5082567     1.6991352    -0.4256164
N          -0.0506962    -0.5832790    -2.6633563
25
092_C11H12N2_9-0-18-16 (15,) energy =    -535.8979372
C           2.2712071     0.2722181     0.0052350
H           1.9681139     1.3020372     0.2252257
H           1.8930702    -0.3554303     0.8221355
C           6.5811189     0.0148411    -0.1370583
H           7.6653935    -0.0475222    -0.1704811
C           5.8420927    -0.9788886     0.5055029
H           6.3475309    -1.8186845     0.9744479
C           4.4489649    -0.8950107     0.5492369
H           3.8753607    -1.6708448     1.0511292
C           3.7802398     0.1804459    -0.0459579
C           4.5316992     1.1744691    -0.6876576
H           4.0218973     2.0141856    -1.1541439
C           5.9225480     1.0926387    -0.7345976
H           6.4930177     1.8712763    -1.2335672
C           1.1438868    -0.9807773    -3.2103516
H           1.1791648    -1.4710989    -4.1741923
C           2.1647382    -0.8219310    -2.3102313
H           3.2014988    -1.1176211    -2.3215217
N           1.6143541    -0.1275251    -1.2457654
C           0.2914309     0.0923070    -1.5576554
C          -0.6596310     0.8110985    -0.6554576
H          -0.7756273     0.3102656     0.3149056
H          -1.6350624     0.8392706    -1.1450744
H          -0.3469402     1.8447283    -0.4546737
N          -0.0167428    -0.4118371    -2.7383114
25
092_C11H12N2_9-0-18-16 (30,) energy =    -535.8984760
C           2.2533226     0.0365565     0.0564731
H           1.8768257     0.9962118     0.4255075
H           1.9396909    -0.7297894     0.7773552
C           6.5695784     0.1385210    -0.1370923
H           7.6548501     0.1679908    -0.1819300
C           5.9241182    -0.8907227     0.5474303
H           6.5033555    -1.6681942     1.0380616
C           4.5285652    -0.9252882     0.6027885
H           4.0281374    -1.7300057     1.1366672
C           3.7654268     0.0669221    -0.0207396
C           4.4233611     1.0980997    -0.7061498
H           3.8394854     1.8714108    -1.1995423
C           5.8150112     1.1335290    -0.7653493
H           6.3124256     1.9387385    -1.2991750
C           1.1260098    -0.9628912    -3.2394657
H           1.1460725    -1.4297014    -4.2153389
C           2.1141414    -0.9531608    -2.2909650
H           3.1056744    -1.3768583    -2.2621200
N           1.6064329    -0.2151086    -1.2344231
C           0.3369256     0.1762170    -1.5982256
C          -0.5649150     0.9894648    -0.7249890
H          -0.8047484     0.4825497     0.2188221
H          -1.4965342     1.1571511    -1.2690604
H          -0.1356551     1.9683435    -0.4729766
N           0.0253928    -0.2597080    -2.8046233
25
092_C11H12N2_9-0-18-16 (45,) energy =    -535.8989942
C           2.2580674    -0.2189582     0.0807026
H           1.8154828     0.6408036     0.5935857
H           2.0214247    -1.1054629     0.6832047
C           6.5488747     0.2777220    -0.1155306
H           7.6269081     0.4070899    -0.1579076
C           5.9978622    -0.7774005     0.6104683
H           6.6435735    -1.4760176     1.1356479
C           4.6113711    -0.9426241     0.6596650
H           4.1853759    -1.7690820     1.2243199
C           3.7631944    -0.0549874    -0.0092770
C           4.3260029     1.0024959    -0.7375439
H           3.6759980     1.6915251    -1.2710339
C           5.7084763     1.1671840    -0.7915549
H           6.1318290     1.9903959    -1.3607454
C           1.0725778    -0.9412781    -3.2587194
H           1.0496235    -1.3810248    -4.2470143
C           2.0249886    -1.0996567    -2.2878408
H           2.9465123    -1.6601302    -2.2484241
N           1.6016027    -0.3232490    -1.2216360
C           0.4119429     0.2582690    -1.6022938
C          -0.3913961     1.1713554    -0.7304251
H          -0.7428125     0.6777129     0.1848501
H          -1.2652889     1.4922770    -1.3008309
H           0.1672795     2.0672776    -0.4296538
N           0.0740272    -0.0968039    -2.8278201
25
092_C11H12N2_9-0-18-16 (60,) energy =    -535.8992643
C           2.2576193    -0.4961712     0.0506455
H           1.7435585     0.2228188     0.6966989
H           2.1181034    -1.4835417     0.5077339
C           6.4744830     0.4669804    -0.0513471
H           7.5327117     0.7131564    -0.0673440
C           6.0111763    -0.5863183     0.7370505
H           6.7066064    -1.1672260     1.3369615
C           4.6514254    -0.9039916     0.7491749
H           4.2959820    -1.7308975     1.3605292
C           3.7403184    -0.1707106    -0.0179662
C           4.2137278     0.8840604    -0.8087748
H           3.5175844     1.4498612    -1.4222241
C           5.5716535     1.1996550    -0.8260395
H           5.9261106     2.0180928    -1.4469135
C           1.0034399    -0.9122285    -3.3099437
H           0.9257889    -1.3087403    -4.3136159
C           1.8977039    -1.2586079    -2.3329147
H           2.7164477    -1.9620146    -2.3022727
N           1.5824756    -0.4660061    -1.2417182
C           0.5128863     0.3178114    -1.6162483
C          -0.1509151     1.3165773    -0.7206686
H          -0.6050279     0.8511258     0.1637294
H          -0.9442471     1.8005343    -1.2937088
H           0.5396701     2.0936767    -0.3689395
N           0.1465964     0.0671238    -2.8592748
25
092_C11H12N2_9-0-18-16 (75,) energy =    -535.8993684
C           2.2607273    -0.7859798    -0.0658039
H           1.6900296    -0.2759394     0.7179013
H           2.2426844    -1.8527931     0.1861960
C           6.3423822     0.6569158     0.0348255
H           7.3658658     1.0197552     0.0733720
C           5.9105698    -0.3226548     0.9316457
H           6.5969703    -0.7279746     1.6703665
C           4.5982940    -0.7909141     0.8750080
H           4.2706136    -1.5595195     1.5725603
C           3.6986304    -0.2844077    -0.0712893
C           4.1382258     0.6945749    -0.9679454
H           3.4553805     1.0835925    -1.7174783
C           5.4534383     1.1612082    -0.9149256
H           5.7824553     1.9190663    -1.6209185
C           0.8846649    -0.7853789    -3.4007149
H           0.7309412    -1.0915017    -4.4269535
C           1.7197192    -1.3428142    -2.4697467
H           2.4075808    -2.1748775    -2.5039641
N           1.5428116    -0.5965117    -1.3166737
C           0.6168562     0.3795986    -1.6133028
C           0.1418510     1.4037551    -0.6311638
H          -0.3941783     0.9541674     0.2151280
H          -0.5472960     2.0721757    -1.1509509
H           0.9634120     2.0048921    -0.2219662
N           0.2033792     0.2841326    -2.8632088
25
092_C11H12N2_9-0-18-16 (90,) energy =    -535.8995827
C           2.3492214    -1.0814087    -0.2561485
H           1.7649377    -0.8965133     0.6516889
H           2.4942582    -2.1672197    -0.3110007
C           6.2206640     0.8257607     0.1141939
H           7.1953696     1.2950371     0.2161161
C           5.6501353     0.1507358     1.1959789
H           6.1776572     0.0942314     2.1444874
C           4.3969841    -0.4453919     1.0640298
H           3.9549646    -0.9641698     1.9128286
C           3.6993655    -0.3825068    -0.1495478
C           4.2749422     0.2958345    -1.2280133
H           3.7426187     0.3572396    -2.1724347
C           5.5289421     0.8974208    -1.0946830
H           5.9628026     1.4243740    -1.9403315
C           0.7329385    -0.5466692    -3.4374064
H           0.4747794    -0.7037426    -4.4762577
C           1.5653664    -1.2987388    -2.6513584
H           2.1511590    -2.1868028    -2.8393323
N           1.5444106    -0.6961090    -1.4038268
C           0.7132312     0.3970426    -1.5055491
C           0.4332792     1.3278359    -0.3694646
H          -0.0507312     0.8195481     0.4750747
H          -0.2408392     2.1078044    -0.7286261
H           1.3464176     1.8033441     0.0094430
N           0.2063859     0.5039325    -2.7196183
25
092_C11H12N2_9-0-18-16 (105,) energy =    -535.8996952
C           2.4311390    -1.2141085    -0.3899870
H           1.8581436    -1.2285820     0.5441553
H           2.6652012    -2.2587440    -0.6258453
C           6.1362725     0.9426417     0.2092290
H           7.0719579     1.4733096     0.3627201
C           5.4603231     0.3834560     1.2945364
H           5.8649777     0.4789986     2.2985994
C           4.2548812    -0.2908889     1.0941703
H           3.7279961    -0.7178555     1.9452359
C           3.7150237    -0.4219625    -0.1903969
C           4.3975917     0.1430287    -1.2742807
H           3.9812226     0.0586512    -2.2743465
C           5.5996908     0.8224979    -1.0743319
H           6.1170518     1.2604014    -1.9237806
C           0.5427017    -0.4965813    -3.3853313
H           0.1641599    -0.6176307    -4.3915952
C           1.4142120    -1.3076570    -2.7078714
H           1.9221359    -2.2241184    -2.9712681
N           1.5752259    -0.7235532    -1.4617967
C           0.7930498     0.4094741    -1.4510980
C           0.6816653     1.3224774    -0.2727954
H           0.2696251     0.8123231     0.6083394
H           0.0084293     2.1397108    -0.5388062
H           1.6514089     1.7455070     0.0154109
N           0.1600369     0.5665422    -2.5990289
25
092_C11H12N2_9-0-18-16 (120,) energy =    -535.8990849
C           2.4706089    -1.2715687    -0.5205952
H           1.9017641    -1.4142710     0.4065307
H           2.7634025    -2.2704763    -0.8628103
C           6.0456261     1.0191202     0.3114437
H           6.9491779     1.5846174     0.5221425
C           5.3306195     0.4261863     1.3524074
H           5.6727936     0.5292465     2.3786521
C           4.1655341    -0.2929404     1.0789330
H           3.6071955    -0.7464947     1.8952644
C           3.7064318    -0.4344615    -0.2347958
C           4.4299597     0.1628913    -1.2747518
H           4.0756184     0.0677572    -2.2977295
C           5.5902366     0.8872600    -1.0026635
H           6.1395952     1.3497463    -1.8182608
C           0.3409841    -0.5279181    -3.3427936
H          -0.1552786    -0.6678855    -4.2939169
C           1.2481193    -1.3531977    -2.7342329
H           1.6839762    -2.3008292    -3.0157264
N           1.5904349    -0.7240831    -1.5476569
C           0.8556689     0.4404536    -1.4917000
C           0.9042670     1.4001817    -0.3465778
H           0.6518301     0.9183071     0.6072792
H           0.1731645     2.1886093    -0.5363103
H           1.8931799     1.8582145    -0.2294490
N           0.1008003     0.5824946    -2.5656282
25
092_C11H12N2_9-0-18-16 (135,) energy =    -535.8978933
C           2.5424271    -1.3293720    -0.6428086
H           1.9888140    -1.6003435     0.2655341
H           2.8992112    -2.2669093    -1.0835236
C           5.9692617     1.0838867     0.4235563
H           6.8365133     1.6809744     0.6918704
C           5.2240285     0.4446104     1.4141663
H           5.5062732     0.5420077     2.4590164
C           4.1054360    -0.3156219     1.0660313
H           3.5230595    -0.8059467     1.8432426
C           3.7235725    -0.4510579    -0.2722125
C           4.4798816     0.1905049    -1.2621290
H           4.1867388     0.0975614    -2.3047183
C           5.5924726     0.9560414    -0.9161435
H           6.1674731     1.4526998    -1.6930892
C           0.1467746    -0.5978480    -3.2391927
H          -0.4690788    -0.7653039    -4.1128419
C           1.1034505    -1.4202051    -2.7102673
H           1.4793061    -2.3905340    -3.0010833
N           1.6232732    -0.7427167    -1.6172757
C           0.9197910     0.4410808    -1.5195772
C           1.1169073     1.4560621    -0.4389401
H           1.0072650     1.0219366     0.5630073
H           0.3545626     2.2275779    -0.5656527
H           2.1049601     1.9274524    -0.4824774
N           0.0370487     0.5547341    -2.4946925
25
092_C11H12N2_9-0-18-16 (150,) energy =    -535.8960599
C           2.6300009    -1.3754211    -0.7812417
H           2.1155578    -1.7932514     0.0941550
H           3.0507456    -2.2229375    -1.3341284
C           5.8858348     1.1400499     0.5439380
H           6.7112091     1.7633090     0.8769597
C           5.1072551     0.4523866     1.4743453
H           5.3220968     0.5374087     2.5361282
C           4.0431805    -0.3435653     1.0437070
H           3.4352000    -0.8740174     1.7733140
C           3.7483435    -0.4639754    -0.3174395
C           4.5414793     0.2236655    -1.2465368
H           4.3184927     0.1372715    -2.3071626
C           5.5993528     1.0243728    -0.8194007
H           6.2032119     1.5560527    -1.5498858
C          -0.0480974    -0.6610532    -3.0778243
H          -0.7805197    -0.8558620    -3.8500412
C           0.9581298    -1.4770718    -2.6425649
H           1.2738244    -2.4690396    -2.9323309
N           1.6441626    -0.7570961    -1.6740217
C           0.9735742     0.4449306    -1.5368803
C           1.3109555     1.5201556    -0.5519812
H           1.3279979     1.1509527     0.4802444
H           0.5382762     2.2876905    -0.6330063
H           2.2853514     1.9805308    -0.7473305
N          -0.0322588     0.5296738    -2.3880860
25
092_C11H12N2_9-0-18-16 (165,) energy =    -535.8937329
C           2.7492819    -1.4039241    -0.9612752
H           2.3266376    -2.0092080    -0.1491394
H           3.2252158    -2.0997334    -1.6618686
C           5.7960884     1.1863321     0.6734512
H           6.5695797     1.8296597     1.0838752
C           4.9624600     0.4618251     1.5251097
H           5.0832824     0.5374018     2.6023064
C           3.9680894    -0.3632359     0.9945999
H           3.3196064    -0.9258379     1.6624473
C           3.7950795    -0.4729094    -0.3885525
C           4.6463811     0.2491064    -1.2368705
H           4.5250422     0.1649587    -2.3143916
C           5.6362858     1.0773665    -0.7109494
H           6.2871568     1.6338461    -1.3799092
C          -0.2387501    -0.7200980    -2.8424477
H          -1.0800404    -0.9426658    -3.4855272
C           0.8137503    -1.5281438    -2.5172032
H           1.0726897    -2.5401287    -2.7942077
N           1.6432516    -0.7723123    -1.6998310
C           1.0122524     0.4485795    -1.5317831
C           1.4870597     1.5883589    -0.6844240
H           1.6047168     1.3099568     0.3685331
H           0.7290937     2.3715675    -0.7542947
H           2.4457984     1.9965283    -1.0203048
N          -0.1076594     0.5042882    -2.2307256
25
092_C11H12N2_9-0-18-16 (180,) energy =    -535.8923102
C           2.9141626    -1.4476440    -1.2252449
H           2.6977060    -2.3095758    -0.5830335
H           3.3998428    -1.8359694    -2.1282458
C           5.7075269     1.1222726     0.8352233
H           6.4167033     1.7609318     1.3546061
C           4.7728654     0.3801484     1.5599750
H           4.7530475     0.4372127     2.6448766
C           3.8660560    -0.4430771     0.8917384
H           3.1422155    -1.0236384     1.4592898
C           3.8754451    -0.5296323    -0.5059107
C           4.8260275     0.2081328    -1.2221213
H           4.8525981     0.1367809    -2.3071641
C           5.7347303     1.0325805    -0.5579232
H           6.4664864     1.5995062    -1.1269378
C          -0.3860182    -0.8717967    -2.5539379
H          -1.3103697    -1.1296004    -3.0540329
C           0.6929203    -1.6732956    -2.3050709
H           0.9021720    -2.7102527    -2.5263055
N           1.6165853    -0.8799435    -1.6411464
C           1.0426598     0.3725964    -1.5219451
C           1.6427798     1.5850781    -0.8789223
H           1.8754941     1.4332068     0.1799103
H           0.9011165     2.3823910    -0.9625224
H           2.5649448     1.9130475    -1.3697617
N          -0.1626402     0.3925729    -2.0663287
