25
092_C11H12N2_18-0-9-10 (-165,) energy =    -535.8993849
C           2.5604449    -1.1808252    -1.0398945
H           2.1286856    -1.6731002    -0.1613114
H           2.7652330    -1.9756501    -1.7664439
C           6.2803442     0.7118498     0.1188079
H           7.2164557     1.1759996     0.4169907
C           5.1535255     1.4962542    -0.1260539
H           5.2080396     2.5764904    -0.0204272
C           3.9494150     0.9016265    -0.5114984
H           3.0799358     1.5208752    -0.7103427
C           3.8611960    -0.4858627    -0.6568444
C           4.9986807    -1.2672857    -0.4155102
H           4.9440293    -2.3480620    -0.5332696
C           6.1995930    -0.6750268    -0.0277721
H           7.0734224    -1.2951576     0.1538965
C           0.4147333     0.9922531    -2.9596531
H           0.0420122     1.5424665    -3.8133786
C           1.4953863     0.1532530    -2.9027856
H           2.2247021    -0.1567617    -3.6367796
N           1.5404161    -0.3082632    -1.5978243
C           0.4900645     0.2835875    -0.9311193
C           0.1845285     0.0455156     0.5139179
H          -0.0724435    -1.0021974     0.7185741
H          -0.6747328     0.6633604     0.7818462
H           1.0227293     0.3154426     1.1683939
N          -0.2054755     1.0689275    -1.7322346
25
092_C11H12N2_18-0-9-10 (-150,) energy =    -535.8993417
C           2.5428122    -1.1404777    -0.8528396
H           2.0956811    -1.4752328     0.0892927
H           2.6990336    -2.0410104    -1.4583777
C           6.3595341     0.7118783     0.0080725
H           7.3190736     1.1687214     0.2344968
C           5.2004580     1.4895931    -0.0217502
H           5.2549651     2.5559296     0.1806806
C           3.9676241     0.9050263    -0.3144317
H           3.0716895     1.5184269    -0.3497282
C           3.8796374    -0.4654535    -0.5837953
C           5.0469508    -1.2371533    -0.5606115
H           4.9920715    -2.3017201    -0.7797688
C           6.2796724    -0.6549233    -0.2629042
H           7.1772409    -1.2675404    -0.2517801
C           0.5143296     0.9098553    -3.0217131
H           0.2040959     1.4216617    -3.9230187
C           1.6217579     0.1268035    -2.8346371
H           2.4357303    -0.1619104    -3.4831722
N           1.5616614    -0.2942882    -1.5167883
C           0.4216000     0.2580519    -0.9749674
C          -0.0220444     0.0424919     0.4379879
H          -0.2471598    -1.0109553     0.6499762
H          -0.9347776     0.6211075     0.5930089
H           0.7249018     0.3757003     1.1695173
N          -0.2267682     0.9876170    -1.8635744
25
092_C11H12N2_18-0-9-10 (-135,) energy =    -535.8992547
C           2.5174517    -1.0751425    -0.6626166
H           2.0630034    -1.2520061     0.3174099
H           2.6237420    -2.0562953    -1.1411220
C           6.4259740     0.7003205    -0.1229676
H           7.4083499     1.1419028     0.0207175
C           5.2755793     1.4710821     0.0653319
H           5.3612197     2.5147677     0.3557665
C           4.0146475     0.9067759    -0.1203191
H           3.1235675     1.5143267     0.0148599
C           3.8860444    -0.4361125    -0.4984305
C           5.0422091    -1.1983802    -0.6924445
H           4.9543784    -2.2399007    -0.9946593
C           6.3066541    -0.6363141    -0.5025612
H           7.1954361    -1.2417350    -0.6590058
C           0.6108631     0.8305634    -3.0652243
H           0.3627460     1.3026179    -4.0066037
C           1.7368818     0.1185841    -2.7498051
H           2.6253214    -0.1367556    -3.3080394
N           1.5750653    -0.2682034    -1.4299666
C           0.3579632     0.2284478    -1.0170358
C          -0.2122597     0.0235481     0.3516268
H          -0.3982831    -1.0350946     0.5747364
H          -1.1668525     0.5515516     0.3957894
H           0.4351778     0.4206171     1.1438472
N          -0.2413373     0.8955751    -1.9854773
25
092_C11H12N2_18-0-9-10 (-120,) energy =    -535.8990794
C           2.5003857    -1.0151952    -0.5015384
H           2.0420041    -1.0522586     0.4910589
H           2.5659187    -2.0494018    -0.8618141
C           6.4703990     0.6793979    -0.2384622
H           7.4678410     1.1046977    -0.1684436
C           5.3599921     1.4270975     0.1647000
H           5.4923457     2.4350802     0.5485610
C           4.0804600     0.8832160     0.0760397
H           3.2188030     1.4718934     0.3815472
C           3.8914533    -0.4153081    -0.4168595
C           5.0070445    -1.1535583    -0.8232609
H           4.8716518    -2.1611034    -1.2106487
C           6.2918676    -0.6120173    -0.7326431
H           7.1489667    -1.1987998    -1.0519031
C           0.6969814     0.7218931    -3.1080166
H           0.4976780     1.1483887    -4.0821901
C           1.8313858     0.0841921    -2.6825767
H           2.7712263    -0.1412062    -3.1637641
N           1.5918939    -0.2603348    -1.3629035
C           0.3219631     0.1808595    -1.0617264
C          -0.3391852    -0.0051025     0.2680844
H          -0.4731942    -1.0634037     0.5268640
H          -1.3260894     0.4588641     0.2155372
H           0.2169843     0.4685011     1.0874252
N          -0.2364061     0.7792568    -2.0973329
25
092_C11H12N2_18-0-9-10 (-105,) energy =    -535.8986975
C           2.4901357    -0.9476106    -0.3859440
H           2.0206263    -0.8702203     0.5982018
H           2.5302411    -2.0140957    -0.6416604
C           6.4911798     0.6881350    -0.2978295
H           7.4959806     1.1011858    -0.2770348
C           5.4363219     1.3802674     0.3034903
H           5.6190977     2.3330590     0.7929614
C           4.1479494     0.8496911     0.2788127
H           3.3288723     1.3950164     0.7420142
C           3.8950147    -0.3794408    -0.3447657
C           4.9565799    -1.0634186    -0.9464561
H           4.7720475    -2.0197546    -1.4312064
C           6.2493181    -0.5347649    -0.9231946
H           7.0643385    -1.0792628    -1.3923061
C           0.7798186     0.6014031    -3.1724510
H           0.6182866     0.9690865    -4.1771279
C           1.9082707     0.0202185    -2.6588205
H           2.8762453    -0.2011167    -3.0819629
N           1.6136573    -0.2577782    -1.3347979
C           0.3197193     0.1630848    -1.1194520
C          -0.4003488     0.0318734     0.1859224
H          -0.5174351    -1.0137706     0.4987796
H          -1.3958045     0.4624167     0.0606423
H           0.1020430     0.5674669     1.0019845
N          -0.2029110     0.6877897    -2.2122492
25
092_C11H12N2_18-0-9-10 (-90,) energy =    -535.8979461
C           2.4937925    -1.1202755    -0.4797649
H           1.9812226    -1.1507556     0.4846563
H           2.6258151    -2.1574463    -0.8081840
C           6.3310627     0.8473014    -0.1221785
H           7.2927171     1.3459646    -0.0373435
C           5.2725401     1.2196466     0.7085794
H           5.4075774     2.0087943     1.4433135
C           4.0393509     0.5767776     0.5998826
H           3.2199527     0.8696836     1.2523693
C           3.8458811    -0.4444336    -0.3383161
C           4.9154629    -0.8132558    -1.1628192
H           4.7849759    -1.6152649    -1.8862999
C           6.1505014    -0.1723213    -1.0580696
H           6.9715376    -0.4720383    -1.7037474
C           0.7000438     0.2983963    -3.2837494
H           0.4629330     0.5304933    -4.3135766
C           1.7383785    -0.4555614    -2.8057871
H           2.5492930    -0.9752839    -3.2938373
N           1.5965877    -0.4572852    -1.4290308
C           0.4819827     0.3001538    -1.1451543
C          -0.0360084     0.5520767     0.2358647
H          -0.2791987    -0.3755586     0.7701785
H          -0.9508985     1.1408572     0.1446643
H           0.6717534     1.1170930     0.8557871
N          -0.0773905     0.7633999    -2.2477069
25
092_C11H12N2_18-0-9-10 (-75,) energy =    -535.8984184
C           2.4953183    -1.2566744    -0.5684041
H           1.9730069    -1.4084351     0.3817701
H           2.7276618    -2.2489196    -0.9675439
C           6.1536796     0.9573512     0.1031117
H           7.0742456     1.5095649     0.2711956
C           5.1633021     0.9302365     1.0846863
H           5.3090581     1.4591336     2.0226983
C           3.9819323     0.2180453     0.8658738
H           3.2184689     0.1902246     1.6398865
C           3.7729704    -0.4682469    -0.3354441
C           4.7807263    -0.4465737    -1.3086706
H           4.6368465    -0.9830158    -2.2437343
C           5.9600477     0.2650407    -1.0950264
H           6.7311396     0.2748313    -1.8606386
C           0.5010931    -0.0918459    -3.3525146
H           0.1262959    -0.0306338    -4.3656108
C           1.4544157    -0.9392121    -2.8541326
H           2.0473019    -1.7221332    -3.3042860
N           1.5637553    -0.6307946    -1.5083530
C           0.6743293     0.3913434    -1.2640427
C           0.4756207     1.0231504     0.0761861
H           0.2142744     0.2881249     0.8491648
H          -0.3459048     1.7374073    -0.0072901
H           1.3685790     1.5604827     0.4179572
N           0.0190570     0.7297112    -2.3595817
25
092_C11H12N2_18-0-9-10 (-60,) energy =    -535.8991621
C           2.4784226    -1.2528704    -0.5234733
H           1.9394905    -1.3759165     0.4220574
H           2.7256573    -2.2585991    -0.8796798
C           6.1246072     0.9750963     0.1616265
H           7.0443283     1.5270356     0.3351928
C           5.2475402     0.7259402     1.2165444
H           5.4790903     1.0828064     2.2165067
C           4.0648904     0.0178352     0.9889857
H           3.3841670    -0.1753984     1.8152912
C           3.7466696    -0.4482312    -0.2906438
C           4.6367074    -0.1971384    -1.3436074
H           4.3966114    -0.5463583    -2.3448665
C           5.8151413     0.5124734    -1.1205492
H           6.4945918     0.7032390    -1.9469020
C           0.5078357    -0.2360649    -3.3800412
H           0.1190915    -0.2432938    -4.3896966
C           1.4146753    -1.0948121    -2.8176842
H           1.9444049    -1.9560174    -3.1985198
N           1.5685910    -0.6710067    -1.5077583
C           0.7520394     0.4255646    -1.3481720
C           0.6222564     1.1819911    -0.0653789
H           0.2883683     0.5411354     0.7616986
H          -0.1217945     1.9678111    -0.2098206
H           1.5676268     1.6472495     0.2389073
N           0.0997497     0.7044547    -2.4620585
25
092_C11H12N2_18-0-9-10 (-45,) energy =    -535.8996076
C           2.4547234    -1.2350972    -0.4378491
H           1.8978163    -1.2948367     0.5037915
H           2.6934922    -2.2654657    -0.7249195
C           6.1403437     0.9456356     0.1881001
H           7.0710052     1.4832361     0.3478411
C           5.3871026     0.5090514     1.2778595
H           5.7258267     0.7068579     2.2913176
C           4.1883222    -0.1760136     1.0685345
H           3.6016704    -0.5100812     1.9218636
C           3.7324442    -0.4373506    -0.2279094
C           4.4946178     0.0047658    -1.3169449
H           4.1426823    -0.1795108    -2.3286154
C           5.6891362     0.6934684    -1.1099670
H           6.2684465     1.0350106    -1.9636204
C           0.5412711    -0.3770742    -3.3814396
H           0.1629359    -0.4444904    -4.3928134
C           1.4229472    -1.2153927    -2.7518770
H           1.9379828    -2.1115554    -3.0665252
N           1.5745290    -0.7048285    -1.4727675
C           0.7816289     0.4178791    -1.3976572
C           0.6613329     1.2624564    -0.1701997
H           0.2730288     0.6950057     0.6862679
H          -0.0353589     2.0752363    -0.3845262
H           1.6232969     1.6948539     0.1302811
N           0.1462857     0.6336881    -2.5348741
25
092_C11H12N2_18-0-9-10 (-30,) energy =    -535.8997230
C           2.4034513    -1.1702862    -0.3480629
H           1.8301077    -1.1304211     0.5847830
H           2.6109235    -2.2301657    -0.5374003
C           6.1641515     0.9123555     0.1694325
H           7.1130531     1.4244708     0.3036528
C           5.5231037     0.3234332     1.2607102
H           5.9691872     0.3773903     2.2502289
C           4.3009789    -0.3263972     1.0854728
H           3.8020147    -0.7765444     1.9415504
C           3.7083260    -0.4039971    -0.1806162
C           4.3552585     0.1902367    -1.2699618
H           3.8994401     0.1468230    -2.2551059
C           5.5750490     0.8457026    -1.0942520
H           6.0643487     1.3068406    -1.9480303
C           0.5951382    -0.4778025    -3.3967439
H           0.2545225    -0.5983746    -4.4165220
C           1.4555811    -1.2791310    -2.6937744
H           1.9873865    -2.1856222    -2.9442378
N           1.5571957    -0.7043389    -1.4371915
C           0.7591731     0.4174513    -1.4484587
C           0.5943935     1.3218376    -0.2696603
H           0.1544976     0.8026108     0.5924313
H          -0.0760692     2.1344968    -0.5558204
H           1.5486865     1.7527726     0.0566295
N           0.1661186     0.5730123    -2.6176613
25
092_C11H12N2_18-0-9-10 (-15,) energy =    -535.8996320
C           2.3516838    -1.0927876    -0.2657015
H           1.7636687    -0.9305985     0.6445261
H           2.5080241    -2.1755415    -0.3405075
C           6.1968503     0.8585397     0.1464545
H           7.1644802     1.3399931     0.2584151
C           5.6434961     0.1391947     1.2085238
H           6.1776717     0.0600048     2.1516701
C           4.3992926    -0.4724300     1.0639124
H           3.9708247    -1.0257240     1.8977232
C           3.6936298    -0.3810143    -0.1431310
C           4.2518904     0.3415903    -1.2016681
H           3.7132884     0.4234089    -2.1409611
C           5.4971150     0.9584268    -1.0557431
H           5.9177329     1.5191972    -1.8861942
C           0.6847198    -0.5663810    -3.4230560
H           0.3971758    -0.7361458    -4.4521347
C           1.5171401    -1.3246691    -2.6430708
H           2.0745369    -2.2315175    -2.8275661
N           1.5470816    -0.6951386    -1.4093341
C           0.7391212     0.4153626    -1.5107934
C           0.5079585     1.3709726    -0.3844764
H           0.0260009     0.8888693     0.4765558
H          -0.1509002     2.1643931    -0.7425263
H           1.4413606     1.8249354    -0.0297032
N           0.2045371     0.5119382    -2.7138297
25
092_C11H12N2_18-0-9-10 (0,) energy =    -535.8994654
C           2.3148205    -0.9846459    -0.1766676
H           1.7261896    -0.6891172     0.6990118
H           2.4071936    -2.0760386    -0.1284863
C           6.2542972     0.7949523     0.1123337
H           7.2436259     1.2362760     0.1965799
C           5.7702202    -0.0414799     1.1218381
H           6.3814160    -0.2536273     1.9951183
C           4.5009251    -0.6056235     1.0116322
H           4.1299284    -1.2555241     1.8023172
C           3.6970515    -0.3452820    -0.1066897
C           4.1865693     0.4916757    -1.1127893
H           3.5766251     0.6975673    -1.9869361
C           5.4595735     1.0584871    -1.0022531
H           5.8271654     1.7071404    -1.7929225
C           0.7698593    -0.6387091    -3.4178843
H           0.5341008    -0.8581255    -4.4507217
C           1.5911588    -1.3367050    -2.5729687
H           2.1909768    -2.2262813    -2.6987728
N           1.5443395    -0.6602921    -1.3651251
C           0.7051253     0.4169304    -1.5456592
C           0.3903549     1.4076280    -0.4705328
H          -0.1157529     0.9443198     0.3868098
H          -0.2768113     2.1624626    -0.8911186
H           1.2897963     1.9094632    -0.0927317
N           0.2222375     0.4486079    -2.7737520
25
092_C11H12N2_18-0-9-10 (15,) energy =    -535.8993905
C           2.2779788    -0.8649859    -0.0996217
H           1.6977448    -0.4366796     0.7252779
H           2.3025967    -1.9472089     0.0730069
C           6.3040405     0.7231719     0.0729925
H           7.3136060     1.1209144     0.1297603
C           5.8674704    -0.2203164     1.0062338
H           6.5365386    -0.5615327     1.7917757
C           4.5733043    -0.7322285     0.9281275
H           4.2410208    -1.4703607     1.6559468
C           3.6960395    -0.3076035    -0.0784214
C           4.1393846     0.6353209    -1.0101193
H           3.4742328     0.9633891    -1.8031492
C           5.4374663     1.1466956    -0.9341871
H           5.7695355     1.8765319    -1.6677450
C           0.8404408    -0.7203129    -3.4047377
H           0.6523907    -0.9932356    -4.4346178
C           1.6597088    -1.3442075    -2.5021828
H           2.3045099    -2.2081898    -2.5696297
N           1.5405123    -0.6196690    -1.3279708
C           0.6627065     0.4106282    -1.5846316
C           0.2606881     1.4310500    -0.5672131
H          -0.2681196     0.9841181     0.2849960
H          -0.4143898     2.1399234    -1.0505476
H           1.1198633     1.9861372    -0.1703937
N           0.2241856     0.3686266    -2.8289391
25
092_C11H12N2_18-0-9-10 (30,) energy =    -535.8993400
C           2.2573848    -0.7117458    -0.0201730
H           1.6985508    -0.1441518     0.7317919
H           2.2062914    -1.7631469     0.2860338
C           6.3765761     0.6189375     0.0254355
H           7.4094985     0.9552860     0.0500339
C           5.9535779    -0.4092163     0.8696240
H           6.6557885    -0.8795331     1.5528520
C           4.6285002    -0.8440346     0.8302706
H           4.3065309    -1.6512734     1.4853544
C           3.7088186    -0.2544424    -0.0449868
C           4.1405257     0.7737006    -0.8900889
H           3.4409545     1.2262008    -1.5871225
C           5.4669976     1.2065827    -0.8553486
H           5.7897265     2.0027557    -1.5209311
C           0.9179732    -0.8144078    -3.3690864
H           0.7816248    -1.1481035    -4.3891781
C           1.7576792    -1.3294174    -2.4181545
H           2.4707304    -2.1405986    -2.4287744
N           1.5527832    -0.5606006    -1.2847637
C           0.6043404     0.3838281    -1.6117527
C           0.0896223     1.4156296    -0.6577653
H          -0.4337789     0.9695615     0.1980978
H          -0.6205092     2.0448926    -1.1978195
H           0.8864250     2.0575478    -0.2614859
N           0.2043699     0.2489644    -2.8624319
25
092_C11H12N2_18-0-9-10 (45,) energy =    -535.8992669
C           2.2495922    -0.5116010     0.0479389
H           1.7263164     0.1929536     0.7023769
H           2.1185822    -1.5065801     0.4901555
C           6.4559948     0.4981611    -0.0280653
H           7.5114762     0.7561743    -0.0369857
C           6.0070045    -0.5920665     0.7169817
H           6.7107045    -1.1899965     1.2899170
C           4.6505682    -0.9243135     0.7206801
H           4.3059133    -1.7795433     1.2982980
C           3.7289675    -0.1697435    -0.0122270
C           4.1882594     0.9225261    -0.7593822
H           3.4838510     1.5050994    -1.3473374
C           5.5425067     1.2531601    -0.7683272
H           5.8859688     2.1007061    -1.3554168
C           0.9945496    -0.9120869    -3.3142577
H           0.9087204    -1.3124847    -4.3157176
C           1.8732131    -1.2800008    -2.3309147
H           2.6702080    -2.0076791    -2.2924734
N           1.5771250    -0.4723474    -1.2456370
C           0.5346734     0.3424859    -1.6300285
C          -0.1038352     1.3642721    -0.7419775
H          -0.5805301     0.9152037     0.1390555
H          -0.8762302     1.8724261    -1.3226339
H           0.6081952     2.1192926    -0.3850816
N           0.1661921     0.0956798    -2.8731929
25
092_C11H12N2_18-0-9-10 (60,) energy =    -535.8990919
C           2.2432659    -0.3121408     0.0891855
H           1.7573337     0.5019062     0.6350397
H           2.0449492    -1.2347710     0.6488003
C           6.5075433     0.3869273    -0.0781669
H           7.5786617     0.5659887    -0.1147170
C           6.0094150    -0.7577533     0.5427095
H           6.6897052    -1.4764460     0.9916379
C           4.6315612    -0.9855833     0.5854739
H           4.2463068    -1.8800930     1.0702202
C           3.7398348    -0.0737561     0.0127503
C           4.2496437     1.0747748    -0.6083189
H           3.5659091     1.7854986    -1.0662354
C           5.6231944     1.3030984    -0.6553030
H           6.0054976     2.1967065    -1.1413005
C           1.0538634    -1.0280262    -3.2476742
H           1.0081585    -1.4979550    -4.2211781
C           1.9658533    -1.2429342    -2.2494032
H           2.8306619    -1.8844478    -2.1705375
N           1.5980758    -0.3927549    -1.2199833
C           0.4774995     0.2856526    -1.6468664
C          -0.2560983     1.2981723    -0.8242057
H          -0.6810917     0.8677368     0.0918358
H          -1.0779235     1.6851801    -1.4298865
H           0.3782569     2.1440880    -0.5295322
N           0.1326046    -0.0776192    -2.8680848
25
092_C11H12N2_18-0-9-10 (75,) energy =    -535.8986935
C           2.2614515    -0.1639452     0.1621394
H           1.8203516     0.7347909     0.6009664
H           2.0359061    -0.9981806     0.8385619
C           6.5457247     0.3045205    -0.1833479
H           7.6223277     0.4249547    -0.2675941
C           6.0101751    -0.8798233     0.3221866
H           6.6673866    -1.6867739     0.6347453
C           4.6256892    -1.0295011     0.4314222
H           4.2114862    -1.9517773     0.8332436
C           3.7632254    -0.0022892     0.0341359
C           4.3113972     1.1860791    -0.4668443
H           3.6509530     1.9920791    -0.7784071
C           5.6921350     1.3385833    -0.5776163
H           6.1036434     2.2654482    -0.9679564
C           1.0104405    -1.2296581    -3.0612276
H           0.9544175    -1.7895738    -3.9853596
C           1.9577264    -1.3205730    -2.0765986
H           2.8468121    -1.9229495    -1.9683914
N           1.5904894    -0.3893830    -1.1200203
C           0.4354700     0.2096171    -1.5724420
C          -0.3092977     1.2702239    -0.8240565
H          -0.6814003     0.9177552     0.1466688
H          -1.1682189     1.5637251    -1.4307699
H           0.2995372     2.1650707    -0.6402470
N           0.0683258    -0.2776250    -2.7431563
25
092_C11H12N2_18-0-9-10 (90,) energy =    -535.8979352
C           2.2194379    -0.3535259     0.2485816
H           1.7035229     0.4631212     0.7593330
H           2.1020600    -1.2483049     0.8701791
C           6.4189664     0.5729684    -0.2359019
H           7.4731955     0.8050772    -0.3598949
C           6.0062223    -0.7511508    -0.0793711
H           6.7383286    -1.5541714    -0.0781179
C           4.6521394    -1.0458521     0.0841028
H           4.3383821    -2.0789442     0.2177939
C           3.6931977    -0.0259728     0.0854231
C           4.1193630     1.2996264    -0.0617671
H           3.3876181     2.1040878    -0.0484688
C           5.4721263     1.5988787    -0.2246056
H           5.7870181     2.6327842    -0.3373752
C           0.8491537    -1.4945415    -2.8994555
H           0.6800735    -2.1462742    -3.7463846
C           1.6572727    -1.7109718    -1.8153958
H           2.3035164    -2.5301522    -1.5373143
N           1.5185000    -0.5898780    -1.0155972
C           0.6374458     0.2493226    -1.6605425
C           0.2029869     1.5805525    -1.1334807
H          -0.2660860     1.5091871    -0.1435463
H          -0.5328366     1.9886952    -1.8291978
H           1.0323911     2.2951938    -1.0579337
N           0.2172846    -0.2763530    -2.7964768
25
092_C11H12N2_18-0-9-10 (105,) energy =    -535.8984012
C           2.1783265    -0.4990721     0.3220626
H           1.6198449     0.2432494     0.9014000
H           2.1478021    -1.4351742     0.8885558
C           6.2615299     0.8168016    -0.2539824
H           7.2860862     1.1459566    -0.4042217
C           5.9155209    -0.5194927    -0.4706624
H           6.6707411    -1.2328976    -0.7893137
C           4.6016555    -0.9420414    -0.2756527
H           4.3385210    -1.9827349    -0.4501832
C           3.6140713    -0.0377911     0.1368067
C           3.9709111     1.2981231     0.3507365
H           3.2168027     2.0087048     0.6809987
C           5.2868682     1.7249392     0.1587813
H           5.5479579     2.7653391     0.3327275
C           0.6117831    -1.7291851    -2.6969773
H           0.2883699    -2.4422699    -3.4436235
C           1.3053591    -1.9723589    -1.5415911
H           1.6897060    -2.8770131    -1.0932814
N           1.4582857    -0.7393912    -0.9295137
C           0.8533363     0.1863129    -1.7498229
C           0.7906346     1.6503955    -1.4541773
H           0.3393266     1.8595380    -0.4751318
H           0.1743127     2.1221276    -2.2220728
H           1.7819680     2.1193569    -1.4694916
N           0.3321830    -0.3874797    -2.8189918
25
092_C11H12N2_18-0-9-10 (120,) energy =    -535.8991227
C           2.1648429    -0.4598877     0.3450870
H           1.6006368     0.2964349     0.9012701
H           2.1441981    -1.3750023     0.9463372
C           6.2421388     0.8830907    -0.2106063
H           7.2663617     1.2186845    -0.3484569
C           5.8467653    -0.3736267    -0.6775379
H           6.5633355    -1.0176122    -1.1802326
C           4.5336385    -0.8053598    -0.5007440
H           4.2296299    -1.7792354    -0.8765584
C           3.5957450     0.0118888     0.1446315
C           3.9986253     1.2706896     0.6019793
H           3.2790314     1.9152691     1.1021775
C           5.3154213     1.7047749     0.4297438
H           5.6124701     2.6852078     0.7922113
C           0.5618182    -1.8237492    -2.5951495
H           0.2004392    -2.5698446    -3.2903412
C           1.2155744    -2.0224445    -1.4080785
H           1.5201890    -2.9125600    -0.8768063
N           1.4506330    -0.7574439    -0.8947765
C           0.9313002     0.1399674    -1.8002495
C           0.9715918     1.6226091    -1.6140111
H           0.4492144     1.9398441    -0.7012740
H           0.4736609     2.0841991    -2.4689678
H           1.9974472     2.0057673    -1.5573377
N           0.3869679    -0.4794453    -2.8317225
25
092_C11H12N2_18-0-9-10 (135,) energy =    -535.8995710
C           2.1413410    -0.3862686     0.3558899
H           1.5740995     0.4017522     0.8633260
H           2.1148165    -1.2626883     1.0133587
C           6.2400325     0.8968938    -0.1803510
H           7.2708776     1.2158893    -0.3079129
C           5.7693717    -0.2381195    -0.8456887
H           6.4336228    -0.8040087    -1.4933608
C           4.4467392    -0.6485687    -0.6849692
H           4.0822854    -1.5249255    -1.2146444
C           3.5759615     0.0714327     0.1432258
C           4.0521392     1.2121937     0.7979564
H           3.3821626     1.7848709     1.4359684
C           5.3781529     1.6220187     0.6422292
H           5.7323740     2.5112021     1.1568470
C           0.5514994    -1.9193159    -2.5054228
H           0.1831421    -2.7025468    -3.1546119
C           1.1818850    -2.0504793    -1.2963631
H           1.4562892    -2.9085868    -0.6999366
N           1.4391159    -0.7583714    -0.8672904
C           0.9564489     0.0859792    -1.8413969
C           1.0358564     1.5762280    -1.7557912
H           0.5066551     1.9691847    -0.8772529
H           0.5679744     1.9927472    -2.6499634
H           2.0714903     1.9330123    -1.7030745
N           0.4138889    -0.5906748    -2.8370824
25
092_C11H12N2_18-0-9-10 (150,) energy =    -535.8997242
C           2.6647594    -1.1450944    -1.4754915
H           2.3217490    -1.9754544    -0.8483791
H           2.9646136    -1.5853848    -2.4338534
C           6.1212043     0.7179369     0.3484688
H           6.9959167     1.1771566     0.8008727
C           5.2956981     1.4615010    -0.4969253
H           5.5257245     2.5031204    -0.7045865
C           4.1704821     0.8748179    -1.0777916
H           3.5281436     1.4604678    -1.7295066
C           3.8561070    -0.4638332    -0.8167426
C           4.6836310    -1.2007999     0.0387333
H           4.4433602    -2.2395493     0.2570244
C           5.8121993    -0.6167909     0.6152350
H           6.4432376    -1.2017379     1.2790710
C           0.1232331     1.0845044    -2.7468141
H          -0.4258764     1.6857655    -3.4591889
C           1.2211921     0.2976572    -2.9749705
H           1.7938253     0.0734451    -3.8632879
N           1.5354806    -0.2676386    -1.7496251
C           0.6161904     0.2121621    -0.8441551
C           0.6123193    -0.1646543     0.6024184
H           0.4562521    -1.2418664     0.7493887
H          -0.2067567     0.3674831     1.0900314
H           1.5513799     0.1035789     1.1014307
N          -0.2475771     1.0261864    -1.4223721
25
092_C11H12N2_18-0-9-10 (165,) energy =    -535.8996473
C           2.6305060    -1.1798739    -1.3477861
H           2.2552160    -1.9266594    -0.6392494
H           2.9138771    -1.7309030    -2.2524890
C           6.1658843     0.7156820     0.2854073
H           7.0598267     1.1806190     0.6920359
C           5.2092359     1.4883881    -0.3725755
H           5.3548436     2.5598488    -0.4812077
C           4.0582943     0.8932508    -0.8952051
H           3.3183338     1.5015007    -1.4067261
C           3.8516254    -0.4828998    -0.7604340
C           4.8148533    -1.2526952    -0.0951595
H           4.6618610    -2.3241902     0.0206885
C           5.9655459    -0.6600068     0.4224846
H           6.7021235    -1.2705159     0.9380996
C           0.2119725     1.0575896    -2.8210874
H          -0.2849069     1.6473968    -3.5798671
C           1.2979648     0.2356845    -2.9675015
H           1.9127573    -0.0269380    -3.8161382
N           1.5340498    -0.2965752    -1.7104073
C           0.5842859     0.2375718    -0.8684761
C           0.4998569    -0.0866218     0.5885340
H           0.3088270    -1.1534542     0.7658331
H          -0.3280857     0.4826235     1.0154770
H           1.4195144     0.1781331     1.1245881
N          -0.2270439     1.0530658    -1.5158908
25
092_C11H12N2_18-0-9-10 (180,) energy =    -535.8994649
C           2.5998450    -1.1878337    -1.1983690
H           2.1913463    -1.8170369    -0.3996837
H           2.8483343    -1.8650923    -2.0239133
C           6.2275267     0.7150492     0.2121728
H           7.1423884     1.1808199     0.5681679
C           5.1706626     1.5005974    -0.2453203
H           5.2581269     2.5838174    -0.2484095
C           3.9929015     0.9036530    -0.7041763
H           3.1773882     1.5229346    -1.0646980
C           3.8618419    -0.4874506    -0.7073646
C           4.9286518    -1.2716002    -0.2473469
H           4.8385569    -2.3565330    -0.2464527
C           6.1031178    -0.6769149     0.2093187
H           6.9211753    -1.2989150     0.5629779
C           0.3229304     1.0378092    -2.8939964
H          -0.1107779     1.6130632    -3.7011337
C           1.4031624     0.1973085    -2.9417497
H           2.0729793    -0.0947603    -3.7373561
N           1.5423725    -0.3035544    -1.6578553
C           0.5454248     0.2679626    -0.8984676
C           0.3531799    -0.0123353     0.5578827
H           0.1203577    -1.0679567     0.7511270
H          -0.4861828     0.5902056     0.9102902
H           1.2398381     0.2452242     1.1503587
N          -0.2052906     1.0769836    -1.6225835
