24
033_C12H12_2-0-19-17 (-165,) energy =    -464.4663812
C           1.0646025    -0.8620258     0.3192465
H           0.8301237    -1.2125585     1.3395421
C           1.8227961     0.4393942     0.4345708
H           1.3027579     1.2527909     0.9390787
C           3.0607832     0.6357676    -0.0242824
H           3.5359160     1.6060264     0.1138078
C           3.8684428    -0.4215890    -0.7253810
H           4.8286842    -0.5652636    -0.2021562
H           4.1551775    -0.0704753    -1.7308614
C           3.1383474    -1.7329133    -0.8263777
H           3.6660947    -2.5536225    -1.3100335
C           1.9051282    -1.9305758    -0.3574047
H           1.4366861    -2.9067641    -0.4682604
C          -2.7273795    -0.5894377    -1.8010589
H          -3.6718566    -0.5351640    -2.3359413
C          -2.4371809    -1.6935579    -0.9961618
H          -3.1551285    -2.5043789    -0.9015752
C          -1.2260612    -1.7575767    -0.3089290
H          -1.0140118    -2.6183554     0.3227824
C          -0.2836342    -0.7230571    -0.4043216
C          -0.5795378     0.3698645    -1.2264676
H           0.1482234     1.1687959    -1.3349065
C          -1.7939612     0.4406094    -1.9133506
H          -2.0063755     1.3022533    -2.5413869
24
033_C12H12_2-0-19-17 (-150,) energy =    -464.4677004
C           1.0720050    -0.9422557     0.2679532
H           0.8546703    -1.3931844     1.2515528
C           1.7825225     0.3710702     0.5004334
H           1.2222264     1.1262771     1.0498912
C           3.0209729     0.6412749     0.0814935
H           3.4606096     1.6134008     0.3004723
C           3.8753532    -0.3335844    -0.6821391
H           4.8177238    -0.5105179    -0.1366847
H           4.1938037     0.1142964    -1.6382310
C           3.1763268    -1.6418001    -0.9340375
H           3.7291759    -2.3943929    -1.4944227
C           1.9415175    -1.9141726    -0.5079171
H           1.4927854    -2.8813540    -0.7277850
C          -2.7420264    -0.5746959    -1.7865610
H          -3.6930759    -0.4937854    -2.3062913
C          -2.5355957    -1.5910851    -0.8519412
H          -3.3261601    -2.3065271    -0.6399576
C          -1.3150200    -1.6877648    -0.1830508
H          -1.1638390    -2.4784039     0.5497694
C          -0.2819719    -0.7745166    -0.4320156
C          -0.4964211     0.2334849    -1.3798806
H           0.3005129     0.9406318    -1.5932024
C          -1.7178749     0.3370137    -2.0474627
H          -1.8679261     1.1306524    -2.7751784
24
033_C12H12_2-0-19-17 (-135,) energy =    -464.4683799
C           1.0836571    -1.0317226     0.2249927
H           0.8799363    -1.5702090     1.1661882
C           1.7462283     0.2834809     0.5694211
H           1.1547234     0.9720909     1.1707463
C           2.9755613     0.6295416     0.1803101
H           3.3789083     1.5973122     0.4752457
C           3.8674709    -0.2529874    -0.6503758
H           4.8089728    -0.4473511    -0.1092568
H           4.1827984     0.2819765    -1.5616327
C           3.2119461    -1.5561024    -1.0197114
H           3.7916247    -2.2394187    -1.6387259
C           1.9846404    -1.9037841    -0.6271337
H           1.5680393    -2.8625402    -0.9311528
C          -2.7521285    -0.5412891    -1.7583473
H          -3.7093893    -0.4244488    -2.2595352
C          -2.6141125    -1.4523069    -0.7106407
H          -3.4642516    -2.0495422    -0.3907353
C          -1.3834371    -1.5961601    -0.0666720
H          -1.2837694    -2.3053201     0.7528826
C          -0.2747072    -0.8358069    -0.4562710
C          -0.4234007     0.0714123    -1.5137736
H           0.4316006     0.6643795    -1.8275931
C          -1.6515085     0.2207305    -2.1575473
H          -1.7497750     0.9327662    -2.9731883
24
033_C12H12_2-0-19-17 (-120,) energy =    -464.4686433
C           1.0982976    -1.1199581     0.1721665
H           0.9073259    -1.7383771     1.0656193
C           1.7107357     0.1871338     0.6281312
H           1.0890290     0.8045634     1.2743240
C           2.9291524     0.6062300     0.2788817
H           3.2942063     1.5630122     0.6497142
C           3.8584831    -0.1771274    -0.6084881
H           4.8015002    -0.3822109    -0.0740452
H           4.1630551     0.4385226    -1.4711440
C           3.2517246    -1.4683414    -1.0873883
H           3.8608114    -2.0805006    -1.7510577
C           2.0335908    -1.8880914    -0.7380349
H           1.6542526    -2.8338665    -1.1212503
C          -2.7605012    -0.5001258    -1.7272721
H          -3.7244489    -0.3448995    -2.2046452
C          -2.6626815    -1.2934104    -0.5841987
H          -3.5506494    -1.7602441    -0.1654995
C          -1.4218414    -1.4898301     0.0267981
H          -1.3525048    -2.1092659     0.9188401
C          -0.2643351    -0.8995625    -0.4918147
C          -0.3744666    -0.1053748    -1.6415658
H           0.5187345     0.3575423    -2.0529221
C          -1.6106367     0.0939544    -2.2543549
H          -1.6779064     0.7136777    -3.1450174
24
033_C12H12_2-0-19-17 (-105,) energy =    -464.4685335
C           1.1158825    -1.2039875     0.1123582
H           0.9351443    -1.8974225     0.9513119
C           1.6809301     0.0806308     0.6831066
H           1.0322672     0.6209283     1.3704707
C           2.8859956     0.5683429     0.3803769
H           3.2158498     1.5042242     0.8292595
C           3.8468259    -0.1084219    -0.5595904
H           4.7957503    -0.3190288    -0.0380234
H           4.1299844     0.5833408    -1.3704427
C           3.2917309    -1.3808128    -1.1410064
H           3.9305756    -1.9220943    -1.8375470
C           2.0851236    -1.8672416    -0.8410694
H           1.7450255    -2.7953108    -1.2976557
C          -2.7629317    -0.4505059    -1.6981111
H          -3.7322895    -0.2559615    -2.1494576
C          -2.6774850    -1.1150463    -0.4745534
H          -3.5814283    -1.4420000     0.0331343
C          -1.4292273    -1.3654463     0.0999526
H          -1.3701745    -1.8869341     1.0533156
C          -0.2506564    -0.9579720    -0.5350622
C          -0.3489290    -0.2875284    -1.7618260
H           0.5599632     0.0349708    -2.2629564
C          -1.5928047    -0.0375646    -2.3402488
H          -1.6497614     0.4808985    -3.2941023
24
033_C12H12_2-0-19-17 (-90,) energy =    -464.4680271
C           1.1281821    -1.2698732     0.0398328
H           0.9610194    -2.0349254     0.8179944
C           1.6496076    -0.0228953     0.7268870
H           0.9761390     0.4413279     1.4451584
C           2.8453038     0.5185313     0.4859048
H           3.1436354     1.4215399     1.0166641
C           3.8371088    -0.0527229    -0.4913355
H           4.7840406    -0.2812126     0.0263103
H           4.1125009     0.7104823    -1.2382425
C           3.3257806    -1.2869576    -1.1842868
H           3.9911735    -1.7544468    -1.9088553
C           2.1271628    -1.8255793    -0.9482242
H           1.8201884    -2.7215003    -1.4856590
C          -2.7743433    -0.4182770    -1.6740173
H          -3.7509929    -0.1966479    -2.0961685
C          -2.6682172    -0.9344359    -0.3815274
H          -3.5626872    -1.1171370     0.2086662
C          -1.4124344    -1.2230114     0.1548229
H          -1.3375517    -1.6316965     1.1608880
C          -0.2448062    -1.0028730    -0.5865441
C          -0.3630839    -0.4756038    -1.8787473
H           0.5358903    -0.2918990    -2.4610495
C          -1.6168017    -0.1904208    -2.4208228
H          -1.6893800     0.2124521    -3.4279805
24
033_C12H12_2-0-19-17 (-75,) energy =    -464.4670199
C           1.1464491    -1.3308012    -0.0247717
H           0.9898684    -2.1672746     0.6798453
C           1.6331619    -0.1446737     0.7855719
H           0.9478578     0.2291761     1.5439887
C           2.8140994     0.4489484     0.6030328
H           3.0886909     1.3021349     1.2217097
C           3.8209522     0.0033991    -0.4231742
H           4.7805251    -0.2280068     0.0689328
H           4.0584354     0.8372856    -1.1049237
C           3.3558432    -1.1886362    -1.2152900
H           4.0455312    -1.5808543    -1.9614542
C           2.1706711    -1.7774991    -1.0396132
H           1.9002531    -2.6405480    -1.6462680
C          -2.7746944    -0.3954204    -1.6583582
H          -3.7561360    -0.1524134    -2.0568954
C          -2.6292805    -0.7496996    -0.3152556
H          -3.4978837    -0.7834111     0.3375788
C          -1.3691498    -1.0659456     0.1912383
H          -1.2662343    -1.3496640     1.2371998
C          -0.2330294    -1.0388292    -0.6296713
C          -0.3893931    -0.6678787    -1.9701471
H           0.4838680    -0.6211669    -2.6148117
C          -1.6502847    -0.3558111    -2.4831615
H          -1.7515697    -0.0771986    -3.5291507
24
033_C12H12_2-0-19-17 (-60,) energy =    -464.4652214
C           1.1580776    -1.3729981    -0.0911450
H           1.0131290    -2.2774475     0.5286234
C           1.6250302    -0.2702974     0.8396767
H           0.9443159     0.0055702     1.6420049
C           2.7896663     0.3679781     0.7118304
H           3.0507915     1.1560768     1.4166640
C           3.7959218     0.0598817    -0.3641264
H           4.7733015    -0.1707136     0.0915555
H           3.9843342     0.9601189    -0.9731843
C           3.3687767    -1.0791555    -1.2498149
H           4.0747664    -1.3971399    -2.0157522
C           2.1991076    -1.7109479    -1.1297181
H           1.9635997    -2.5389474    -1.7965931
C          -2.7842184    -0.3781501    -1.6584990
H          -3.7689617    -0.1218409    -2.0401381
C          -2.5835298    -0.5547867    -0.2874129
H          -3.4129512    -0.4356695     0.4051795
C          -1.3193016    -0.8843455     0.1979893
H          -1.1815027    -1.0298656     1.2675190
C          -0.2306166    -1.0549621    -0.6706761
C          -0.4413470    -0.8573913    -2.0397980
H           0.3926438    -0.9496558    -2.7290482
C          -1.7079111    -0.5303400    -2.5312632
H          -1.8482622    -0.3877435    -3.5998662
24
033_C12H12_2-0-19-17 (-45,) energy =    -464.4628591
C           1.1913286    -1.4227134    -0.1423797
H           1.0598657    -2.3941922     0.3708878
C           1.6630427    -0.4355858     0.9074468
H           1.0271101    -0.3040621     1.7791136
C           2.7950997     0.2648030     0.8155327
H           3.0632897     0.9595063     1.6102160
C           3.7578401     0.1466391    -0.3349670
H           4.7750297    -0.0404027     0.0463135
H           3.8364771     1.1119689    -0.8634815
C           3.3711357    -0.9407473    -1.3000404
H           4.0804393    -1.1681906    -2.0945350
C           2.2347244    -1.6350665    -1.2132093
H           2.0386952    -2.4293149    -1.9311186
C          -2.7809701    -0.3867102    -1.6395776
H          -3.7705750    -0.1270438    -2.0059569
C          -2.5089448    -0.3729580    -0.2702273
H          -3.2872124    -0.1002757     0.4381827
C          -1.2376456    -0.7031792     0.1971120
H          -1.0562198    -0.6936191     1.2682804
C          -0.2094443    -1.0680226    -0.6860507
C          -0.4932783    -1.0615689    -2.0573739
H           0.2875982    -1.3010741    -2.7716177
C          -1.7660577    -0.7317809    -2.5301086
H          -1.9576189    -0.7380732    -3.6002730
24
033_C12H12_2-0-19-17 (-30,) energy =    -464.4613954
C           1.2014882    -1.4827196    -0.1898052
H           1.0592033    -2.5076553     0.1986351
C           1.6804344    -0.6304434     0.9679831
H           1.0928312    -0.6684602     1.8823123
C           2.7736505     0.1337196     0.9327152
H           3.0485965     0.7181320     1.8095036
C           3.6862540     0.2236297    -0.2598915
H           4.7324917     0.0965428     0.0612684
H           3.6516073     1.2390955    -0.6903585
C           3.3499483    -0.7980241    -1.3116190
H           4.0610606    -0.9181722    -2.1275782
C           2.2555125    -1.5604522    -1.2745894
H           2.1032478    -2.3038934    -2.0538944
C          -2.7642628    -0.3555592    -1.6593944
H          -3.7529898    -0.0856414    -2.0207005
C          -2.4114686    -0.1295324    -0.3290781
H          -3.1251905     0.3212440     0.3560421
C          -1.1401476    -0.4738858     0.1321537
H          -0.8946080    -0.2791707     1.1708501
C          -0.1885150    -1.0544467    -0.7194537
C          -0.5582841    -1.2718323    -2.0545515
H           0.1510636    -1.7051880    -2.7515052
C          -1.8289221    -0.9288648    -2.5200382
H          -2.0831005    -1.1076759    -3.5618733
24
033_C12H12_2-0-19-17 (-15,) energy =    -464.4622073
C           1.2279582    -1.4910782    -0.2552631
H           1.1197436    -2.5545185     0.0220408
C           1.6836804    -0.7407739     0.9772702
H           1.0846589    -0.8754382     1.8761108
C           2.7675929     0.0354855     1.0332418
H           3.0231164     0.5316487     1.9683874
C           3.6931395     0.2574567    -0.1305962
H           4.7350558     0.0828475     0.1832452
H           3.6718903     1.3175410    -0.4359876
C           3.3565530    -0.6252725    -1.3005072
H           4.0528123    -0.6194694    -2.1378513
C           2.2759694    -1.4061957    -1.3504857
H           2.1197987    -2.0303674    -2.2271160
C          -2.7668118    -0.4054080    -1.6624271
H          -3.7651289    -0.1526596    -2.0095073
C          -2.3196161     0.0333022    -0.4174411
H          -2.9688121     0.6330326     0.2156912
C          -1.0359552    -0.2920856     0.0273014
H          -0.7076058     0.0755606     0.9937149
C          -0.1646600    -1.0520479    -0.7638546
C          -0.6355568    -1.4981557    -2.0088153
H          -0.0007088    -2.1099573    -2.6428875
C          -1.9162332    -1.1760343    -2.4567198
H          -2.2497482    -1.5312298    -3.4285993
24
033_C12H12_2-0-19-17 (0,) energy =    -464.4643105
C           1.2371728    -1.4885493    -0.3293796
H           1.1774286    -2.5767631    -0.1531803
C           1.6738133    -0.8333920     0.9605550
H           1.0498629    -1.0255563     1.8322597
C           2.7642163    -0.0757650     1.0951941
H           3.0071348     0.3436784     2.0704775
C           3.7116582     0.2305256    -0.0312059
H           4.7399378    -0.0364945     0.2640032
H           3.7509732     1.3189865    -0.2063168
C           3.3406066    -0.4832435    -1.3017036
H           4.0109745    -0.3561980    -2.1504918
C           2.2566919    -1.2503361    -1.4301937
H           2.0597257    -1.7349763    -2.3841246
C          -2.7811081    -0.4200223    -1.6500265
H          -3.7858944    -0.1696121    -1.9797612
C          -2.2457351     0.1719534    -0.5075065
H          -2.8323911     0.8892229     0.0611012
C          -0.9540768    -0.1515290    -0.0830353
H          -0.5484778     0.3312068     0.8005430
C          -0.1679020    -1.0622477    -0.7976808
C          -0.7272479    -1.6645224    -1.9357037
H          -0.1530967    -2.4019750    -2.4921174
C          -2.0142869    -1.3440713    -2.3635797
H          -2.4214810    -1.8216182    -3.2512744
24
033_C12H12_2-0-19-17 (15,) energy =    -464.4662606
C           1.2639827    -1.4990227    -0.3952848
H           1.2547594    -2.5995594    -0.3107673
C           1.6777399    -0.9325181     0.9424338
H           1.0391948    -1.1858354     1.7877532
C           2.7593800    -0.1758022     1.1403262
H           2.9895854     0.1773541     2.1445714
C           3.7114629     0.2222955     0.0462496
H           4.7363487    -0.0851194     0.3133586
H           3.7653995     1.3218456    -0.0229482
C           3.3316971    -0.3587505    -1.2882242
H           3.9855547    -0.1288547    -2.1282421
C           2.2569064    -1.1249876    -1.4819712
H           2.0410419    -1.5073354    -2.4780039
C          -2.7736884    -0.4384870    -1.6334117
H          -3.7827164    -0.1836202    -1.9464492
C          -2.1537342     0.2732870    -0.6070098
H          -2.6787082     1.0883134    -0.1149843
C          -0.8573171    -0.0557338    -0.2030709
H          -0.3801407     0.5124450     0.5900758
C          -0.1568032    -1.0972766    -0.8210453
C          -0.7964646    -1.8142121    -1.8430940
H          -0.2778421    -2.6436425    -2.3205426
C          -2.0881091    -1.4865954    -2.2521601
H          -2.5630576    -2.0549097    -3.0479371
24
033_C12H12_2-0-19-17 (30,) energy =    -464.4675732
C           1.2876783    -1.5008114    -0.4729217
H           1.3230782    -2.6037911    -0.4844797
C           1.6724098    -1.0332071     0.9114058
H           1.0221852    -1.3580035     1.7225099
C           2.7345738    -0.2706078     1.1806414
H           2.9434186     0.0135395     2.2111377
C           3.6926873     0.2262267     0.1325943
H           4.7153388    -0.1105446     0.3727779
H           3.7524102     1.3267593     0.1694380
C           3.3182278    -0.2232853    -1.2535285
H           3.9614372     0.1065531    -2.0681076
C           2.2616238    -0.9931885    -1.5203864
H           2.0460043    -1.2804821    -2.5481016
C          -2.7710631    -0.4405019    -1.6217787
H          -3.7844933    -0.1789848    -1.9145618
C          -2.0630515     0.3711302    -0.7343101
H          -2.5243054     1.2699725    -0.3327511
C          -0.7618893     0.0343350    -0.3567253
H          -0.2137822     0.6723513     0.3310328
C          -0.1467495    -1.1184264    -0.8593440
C          -0.8707641    -1.9304652    -1.7427083
H          -0.4133735    -2.8389323    -2.1305940
C          -2.1692677    -1.5948805    -2.1264695
H          -2.7134585    -2.2387898    -2.8127946
24
033_C12H12_2-0-19-17 (45,) energy =    -464.4683356
C           1.1556999    -0.0900511     0.1210849
H           1.0037246     0.6065214     0.9630982
C           2.1389057     0.5399523    -0.8398149
H           1.8244748     1.4769029    -1.2969356
C           3.3288154     0.0180811    -1.1466842
H           3.9786979     0.5398546    -1.8478800
C           3.8498863    -1.2693099    -0.5675486
H           4.8048493    -1.0848750    -0.0468887
H           4.1130144    -1.9675518    -1.3794527
C           2.8720434    -1.9193235     0.3735132
H           3.1729067    -2.8671763     0.8175491
C           1.6847499    -1.3948463     0.6839932
H           1.0230111    -1.9178822     1.3723241
C          -2.7638694    -0.7222623    -1.6483184
H          -3.7443979    -0.8841107    -2.0882835
C          -1.6090229    -1.0452108    -2.3646758
H          -1.6887337    -1.4605075    -3.3662109
C          -0.3507066    -0.8360713    -1.8005300
H           0.5460674    -1.0878017    -2.3604247
C          -0.2238560    -0.2999831    -0.5122536
C          -1.3878008     0.0246094     0.1945403
H          -1.3058940     0.4500668     1.1929548
C          -2.6495072    -0.1863735    -0.3651206
H          -3.5413003     0.0732496     0.1997437
24
033_C12H12_2-0-19-17 (60,) energy =    -464.4686400
C           1.1405354    -0.1728880     0.1855549
H           0.9746649     0.4398100     1.0878718
C           2.0951088     0.5748339    -0.7206142
H           1.7465199     1.5385708    -1.0880458
C           3.2959110     0.1186743    -1.0842616
H           3.9212247     0.7197468    -1.7429836
C           3.8614049    -1.1990401    -0.6274559
H           4.8154393    -1.0334727    -0.0988931
H           4.1374540    -1.8131978    -1.5007630
C           2.9130705    -1.9614774     0.2579734
H           3.2486382    -2.9345779     0.6138817
C           1.7126013    -1.5052809     0.6223407
H           1.0748725    -2.1084810     1.2662931
C          -2.7545564    -0.6813647    -1.6726317
H          -3.7279025    -0.8103869    -2.1386359
C          -1.6097599    -1.2073611    -2.2774196
H          -1.6907233    -1.7478593    -3.2172022
C          -0.3614103    -1.0414459    -1.6795335
H           0.5278219    -1.4508694    -2.1517133
C          -0.2336266    -0.3474346    -0.4684104
C          -1.3861120     0.1752866     0.1279611
H          -1.3027548     0.7174436     1.0678442
C          -2.6392471     0.0108483    -0.4672330
H          -3.5230441     0.4247651     0.0116450
24
033_C12H12_2-0-19-17 (75,) energy =    -464.4684964
C           1.1251359    -0.2656535     0.2367576
H           0.9407529     0.2579936     1.1903434
C           2.0510446     0.5978435    -0.5956537
H           1.6676436     1.5791951    -0.8697024
C           3.2634665     0.2173430    -1.0041060
H           3.8651592     0.8968235    -1.6061255
C           3.8730852    -1.1186530    -0.6746765
H           4.8286393    -0.9736878    -0.1429841
H           4.1552603    -1.6428661    -1.6030241
C           2.9592948    -1.9872205     0.1472142
H           3.3336152    -2.9728693     0.4204681
C           1.7451440    -1.6082995     0.5531812
H           1.1351012    -2.2871287     1.1468489
C          -2.7473374    -0.6388782    -1.7002403
H          -3.7146955    -0.7303836    -2.1871103
C          -1.6481156    -1.3561195    -2.1791577
H          -1.7583013    -2.0084836    -3.0418154
C          -0.4074095    -1.2397495    -1.5534741
H           0.4460377    -1.7995184    -1.9269733
C          -0.2427872    -0.4066181    -0.4386629
C          -1.3512307     0.3046907     0.0343164
H          -1.2405355     0.9516583     0.9024011
C          -2.5951646     0.1931673    -0.5908677
H          -3.4443858     0.7533218    -0.2077057
24
033_C12H12_2-0-19-17 (90,) energy =    -464.4679196
C           1.1133065    -0.3591968     0.2603202
H           0.9110314     0.0726609     1.2560339
C           2.0150144     0.6076839    -0.4823818
H           1.5985289     1.5947567    -0.6753201
C           3.2434854     0.3068539    -0.9080301
H           3.8261017     1.0563633    -1.4418061
C           3.8969374    -1.0311335    -0.6892388
H           4.8426408    -0.9003922    -0.1366956
H           4.2041735    -1.4632166    -1.6562984
C           3.0085528    -1.9988663     0.0449411
H           3.4178106    -2.9891698     0.2401555
C           1.7766887    -1.7009301     0.4647859
H           1.1875901    -2.4502592     0.9912608
C          -2.7507187    -0.6044827    -1.7172024
H          -3.7167147    -0.6605541    -2.2120503
C          -1.7264465    -1.4845058    -2.0714594
H          -1.8927340    -2.2295942    -2.8454907
C          -0.4866173    -1.4135935    -1.4348072
H           0.3088568    -2.0988919    -1.7149360
C          -0.2497122    -0.4640445    -0.4330302
C          -1.2869992     0.4088764    -0.0808954
H          -1.1231949     1.1444532     0.7045497
C          -2.5266459     0.3447440    -0.7185746
H          -3.3188488     1.0309614    -0.4299436
24
033_C12H12_2-0-19-17 (105,) energy =    -464.4668780
C           1.0998891    -0.4401597     0.2718632
H           0.8722759    -0.1024527     1.2987553
C           1.9833944     0.6162850    -0.3640122
H           1.5460801     1.6079628    -0.4643661
C           3.2211489     0.3864273    -0.8060071
H           3.7897987     1.1973984    -1.2588149
C           3.9038019    -0.9517666    -0.7132858
H           4.8545698    -0.8506030    -0.1635511
H           4.2049704    -1.2915917    -1.7184997
C           3.0453984    -1.9981324    -0.0553393
H           3.4872041    -2.9854751     0.0720565
C           1.8030911    -1.7715068     0.3777456
H           1.2401692    -2.5752803     0.8499763
C          -2.7635224    -0.5915385    -1.7244366
H          -3.7310989    -0.6234153    -2.2182741
C          -1.8228184    -1.5954501    -1.9544504
H          -2.0544686    -2.4146935    -2.6305713
C          -0.5799946    -1.5557151    -1.3182681
H           0.1502212    -2.3370270    -1.5094476
C          -0.2559901    -0.5123724    -0.4437247
C          -1.2140337     0.4848942    -0.2124214
H          -0.9873608     1.2938280     0.4799001
C          -2.4539192     0.4521636    -0.8493830
H          -3.1815513     1.2363404    -0.6559021
24
033_C12H12_2-0-19-17 (120,) energy =    -464.4652194
C           1.0935942    -0.5118320     0.2752601
H           0.8375498    -0.2733316     1.3238361
C           1.9635926     0.6194894    -0.2388523
H           1.5149224     1.6106400    -0.2421567
C           3.2080884     0.4562992    -0.6912168
H           3.7659157     1.3183977    -1.0540960
C           3.9134156    -0.8726516    -0.7291939
H           4.8705750    -0.8050535    -0.1857470
H           4.2043017    -1.1157061    -1.7651486
C           3.0823714    -1.9875160    -0.1541343
H           3.5518964    -2.9682816    -0.0920627
C           1.8328449    -1.8272353     0.2871375
H           1.2975488    -2.6772291     0.7074080
C          -2.7782301    -0.5856382    -1.7227153
H          -3.7499402    -0.5985537    -2.2091927
C          -1.9219484    -1.6805006    -1.8289819
H          -2.2230416    -2.5544539    -2.4012495
C          -0.6732179    -1.6636825    -1.2017995
H          -0.0110344    -2.5180345    -1.3053259
C          -0.2544345    -0.5508677    -0.4644179
C          -1.1323972     0.5380765    -0.3527034
H          -0.8422750     1.4036266     0.2395635
C          -2.3772718     0.5269845    -0.9791917
H          -3.0383465     1.3843282    -0.8803752
24
033_C12H12_2-0-19-17 (135,) energy =    -464.4631083
C           1.0919107    -0.5750690     0.2812557
H           0.8054226    -0.4372546     1.3404226
C           1.9598418     0.6093174    -0.0981900
H           1.5228826     1.5970011     0.0269480
C           3.2017114     0.5013092    -0.5740165
H           3.7582339     1.4013379    -0.8314926
C           3.9077282    -0.8127460    -0.7716919
H           4.8874384    -0.7905742    -0.2667159
H           4.1525751    -0.9545071    -1.8380964
C           3.1045532    -1.9801544    -0.2664992
H           3.5932350    -2.9534046    -0.2751217
C           1.8587342    -1.8734098     0.2002418
H           1.3528558    -2.7600575     0.5779382
C          -2.7771840    -0.5697796    -1.7430963
H          -3.7488621    -0.5656015    -2.2297224
C          -2.0133504    -1.7346334    -1.7019633
H          -2.3861388    -2.6482564    -2.1583500
C          -0.7644051    -1.7388442    -1.0753201
H          -0.1799546    -2.6531916    -1.0710152
C          -0.2459385    -0.5786208    -0.4876271
C          -1.0344747     0.5823395    -0.5227557
H          -0.6788808     1.4937161    -0.0493566
C          -2.2807356     0.5913983    -1.1471618
H          -2.8670414     1.5067577    -1.1634380
24
033_C12H12_2-0-19-17 (150,) energy =    -464.4614899
C           1.0872950    -0.6455845     0.3505336
H           0.7831503    -0.6272376     1.4130147
C           1.9379583     0.5855668     0.1102545
H           1.5185618     1.5408862     0.4165591
C           3.1563538     0.5578791    -0.4330372
H           3.7026585     1.4890649    -0.5758710
C           3.8521388    -0.7095088    -0.8490375
H           4.8758684    -0.7226894    -0.4416309
H           3.9912502    -0.7264540    -1.9435184
C           3.1123078    -1.9400301    -0.3999502
H           3.6259447    -2.8936549    -0.5127587
C           1.8928213    -1.9098134     0.1408265
H           1.4403723    -2.8401826     0.4771994
C          -2.7361349    -0.5766890    -1.7761952
H          -3.6933704    -0.5590350    -2.2903521
C          -2.0853481    -1.7858535    -1.5352191
H          -2.5321214    -2.7214300    -1.8624843
C          -0.8545316    -1.8062691    -0.8763247
H          -0.3670189    -2.7617593    -0.7148297
C          -0.2398964    -0.6222593    -0.4451427
C          -0.9103896     0.5854672    -0.6912664
H          -0.4735074     1.5262436    -0.3724258
C          -2.1404614     0.6103445    -1.3493263
H          -2.6319403     1.5632516    -1.5293079
24
033_C12H12_2-0-19-17 (165,) energy =    -464.4619527
C           1.0562057    -0.7207361     0.3772720
H           0.7686628    -0.8316609     1.4381389
C           1.8787068     0.5444297     0.2601888
H           1.4384000     1.4494694     0.6745837
C           3.0956984     0.6074207    -0.2833370
H           3.6182218     1.5622077    -0.3191305
C           3.8189031    -0.5863240    -0.8425743
H           4.8424254    -0.6261941    -0.4362661
H           3.9590121    -0.4701306    -1.9308927
C           3.1011955    -1.8744968    -0.5473058
H           3.6245560    -2.7976666    -0.7918005
C           1.8867613    -1.9343783     0.0018648
H           1.4508207    -2.9092938     0.2062681
C          -2.7139045    -0.5869425    -1.8396133
H          -3.6520923    -0.5577622    -2.3872722
C          -2.2053809    -1.7999337    -1.3732959
H          -2.7458945    -2.7251216    -1.5571922
C          -0.9989769    -1.8358130    -0.6743326
H          -0.6313870    -2.7942523    -0.3209939
C          -0.2721875    -0.6636352    -0.4138369
C          -0.7917441     0.5446033    -0.8973838
H          -0.2465731     1.4694508    -0.7422505
C          -1.9994077     0.5851622    -1.5979693
H          -2.3755386     1.5386404    -1.9604685
24
033_C12H12_2-0-19-17 (180,) energy =    -464.4642065
C           1.0602491    -0.7859560     0.3573783
H           0.8124549    -1.0249173     1.4067527
C           1.8492033     0.5031941     0.3496799
H           1.3665198     1.3639302     0.8106032
C           3.0782916     0.6383229    -0.1523498
H           3.5740497     1.6066392    -0.1003591
C           3.8486278    -0.4864163    -0.7858832
H           4.8368670    -0.5786438    -0.3057201
H           4.0765507    -0.2424203    -1.8373301
C           3.1155863    -1.7970015    -0.7079064
H           3.6336055    -2.6738753    -1.0935417
C           1.8914388    -1.9315112    -0.1948801
H           1.4317018    -2.9170276    -0.1724469
C          -2.7224635    -0.6084585    -1.8121809
H          -3.6620705    -0.5745974    -2.3572092
C          -2.3274452    -1.7770450    -1.1571397
H          -2.9593459    -2.6610330    -1.1902342
C          -1.1207644    -1.8162977    -0.4607507
H          -0.8368559    -2.7321977     0.0524004
C          -0.2851767    -0.6906021    -0.3894988
C          -0.6858246     0.4681322    -1.0643627
H          -0.0435323     1.3430541    -1.0587191
C          -1.8955978     0.5123677    -1.7625030
H          -2.1852278     1.4266931    -2.2744242
