31
386_C15H15N_7-0-15-16 (-165,) energy =    -635.3467366
C           1.1701427    -1.6861293     1.0367974
C           0.6854210    -2.1724446     2.3965223
H           1.3597163    -2.8048452     2.9673423
H          -0.3656788    -2.4359763     2.4717211
C           1.0499264    -0.7298580     2.2158158
H           0.2621722     0.0168792     2.2062680
H           1.9890274    -0.3890005     2.6388957
N           2.5179792    -2.0758009     0.7300171
H           2.6725922    -3.0733693     0.6569234
C          -1.6740699    -1.5909770    -2.2385409
H          -2.3843468    -1.5745437    -3.0606499
C          -0.4449243    -2.2347307    -2.3777924
H          -0.1879519    -2.7237433    -3.3139264
C           0.4666478    -2.2520029    -1.3216999
H           1.4244180    -2.7444273    -1.4536867
C           0.1733377    -1.6297042    -0.0997247
C          -1.0643505    -0.9774509     0.0229116
H          -1.3320013    -0.4790055     0.9501549
C          -1.9781128    -0.9619489    -1.0304316
H          -2.9290510    -0.4502560    -0.9056891
C           5.3117718     0.2477532    -1.4151310
H           6.0418839     0.8406940    -1.9580516
C           5.5603887    -1.0967963    -1.1267104
H           6.4911514    -1.5603096    -1.4445216
C           4.6261973    -1.8579268    -0.4314591
H           4.8351287    -2.9020130    -0.2046928
C           3.4101210    -1.2904294    -0.0049039
C           3.1584190     0.0603313    -0.3032330
H           2.2212311     0.5151299    -0.0036152
C           4.1063120     0.8121750    -0.9973793
H           3.8897386     1.8544901    -1.2186651
31
386_C15H15N_7-0-15-16 (-150,) energy =    -635.3458519
C           1.1748798    -1.7068364     1.0682670
C           0.6818271    -2.2836908     2.3879505
H           1.3605749    -2.9351828     2.9317394
H          -0.3652982    -2.5679303     2.4349296
C           1.0167113    -0.8233756     2.2953822
H           0.2078733    -0.1013481     2.3364457
H           1.9429640    -0.4867244     2.7486938
N           2.5373283    -2.0596839     0.7681090
H           2.7145504    -3.0526633     0.6845562
C          -1.6012051    -1.5752989    -2.2639811
H          -2.2941992    -1.5545442    -3.1006461
C          -0.4993999    -2.4318667    -2.2798473
H          -0.3266873    -3.0838934    -3.1322208
C           0.3892853    -2.4534591    -1.2063976
H           1.2496690    -3.1149663    -1.2423082
C           0.2013827    -1.6255595    -0.0888887
C          -0.9025324    -0.7610083    -0.0930121
H          -1.0752702    -0.0889889     0.7419101
C          -1.7964150    -0.7393576    -1.1649950
H          -2.6428393    -0.0577204    -1.1414260
C           5.2282950     0.3341568    -1.4305403
H           5.9324122     0.9457612    -1.9869598
C           5.5087665    -1.0087790    -1.1648316
H           6.4380742    -1.4520500    -1.5142379
C           4.6073893    -1.7944365    -0.4536821
H           4.8398268    -2.8378031    -0.2471860
C           3.3946587    -1.2534369     0.0134858
C           3.1118056     0.0960581    -0.2603054
H           2.1770859     0.5309832     0.0746788
C           4.0255497     0.8726892    -0.9726006
H           3.7850548     1.9136463    -1.1748353
31
386_C15H15N_7-0-15-16 (-135,) energy =    -635.3455522
C           1.1918247    -1.7435987     1.0693365
C           0.7126826    -2.3840381     2.3618627
H           1.4123931    -3.0301744     2.8849912
H          -0.3249118    -2.7021022     2.3998691
C           0.9997854    -0.9088986     2.3224219
H           0.1601190    -0.2242565     2.3828764
H           1.9075226    -0.5553889     2.7997474
N           2.5624124    -2.0630606     0.7569992
H           2.7478039    -3.0501177     0.6301864
C          -1.5786757    -1.5790938    -2.2618749
H          -2.2708382    -1.5509970    -3.0990639
C          -0.6491519    -2.6159271    -2.1501076
H          -0.6147390    -3.4011239    -2.9009673
C           0.2377540    -2.6482881    -1.0765610
H           0.9596807    -3.4578881    -1.0051930
C           0.2202738    -1.6505472    -0.0893281
C          -0.7109070    -0.6130843    -0.2191740
H          -0.7367261     0.1870127     0.5145070
C          -1.6043269    -0.5777451    -1.2925957
H          -2.3145952     0.2412204    -1.3725079
C           5.1805360     0.4228082    -1.4293779
H           5.8659526     1.0580872    -1.9826421
C           5.4712528    -0.9286071    -1.2250060
H           6.3900883    -1.3550765    -1.6200443
C           4.5929215    -1.7442290    -0.5187884
H           4.8326989    -2.7946294    -0.3625276
C           3.3940175    -1.2261072     0.0062579
C           3.1017710     0.1325668    -0.2046704
H           2.1793796     0.5527194     0.1793538
C           3.9915359     0.9392393    -0.9138228
H           3.7435939     1.9868632    -1.0666967
31
386_C15H15N_7-0-15-16 (-120,) energy =    -635.3456421
C           1.1893432    -1.7731071     1.0612610
C           0.7140340    -2.4372284     2.3397189
H           1.4297561    -3.0578085     2.8716091
H          -0.3122293    -2.7914080     2.3648462
C           0.9503792    -0.9509546     2.3116490
H           0.0838000    -0.2980896     2.3484603
H           1.8322743    -0.5683703     2.8145721
N           2.5733753    -2.0524215     0.7551150
H           2.7563927    -3.0291459     0.5576633
C          -1.5190502    -1.6198504    -2.3152463
H          -2.1933711    -1.5916416    -3.1669303
C          -0.7864144    -2.7769082    -2.0365399
H          -0.8910410    -3.6545833    -2.6692138
C           0.0763090    -2.8101668    -0.9435298
H           0.6384229    -3.7173969    -0.7321188
C           0.2293125    -1.6935703    -0.1070564
C          -0.5082082    -0.5411743    -0.3995655
H          -0.4008695     0.3395426     0.2273966
C          -1.3772358    -0.5031380    -1.4930932
H          -1.9380002     0.4039354    -1.7034039
C           5.1517190     0.5365178    -1.3622233
H           5.8276924     1.1968563    -1.8974638
C           5.4318563    -0.8276162    -1.2483163
H           6.3326020    -1.2392898    -1.6970384
C           4.5647519    -1.6751656    -0.5662074
H           4.7955262    -2.7358245    -0.4827227
C           3.3886984    -1.1781108     0.0265322
C           3.1084456     0.1941326    -0.0925514
H           2.2072798     0.6017113     0.3501110
C           3.9856602     1.0331786    -0.7793349
H           3.7467100     2.0909331    -0.8598323
31
386_C15H15N_7-0-15-16 (-105,) energy =    -635.3456048
C           1.1899066    -1.7995963     1.0459718
C           0.7373129    -2.4785227     2.3224706
H           1.4725956    -3.0780581     2.8512103
H          -0.2795513    -2.8583611     2.3546173
C           0.9381158    -0.9856858     2.2971460
H           0.0568663    -0.3514496     2.3251789
H           1.8081851    -0.5850452     2.8069188
N           2.5784337    -2.0470543     0.7189533
H           2.7469865    -3.0071673     0.4394237
C          -1.5051055    -1.6668352    -2.3375620
H          -2.1722391    -1.6418991    -3.1950577
C          -0.9855299    -2.8832222    -1.8870799
H          -1.2500358    -3.8094491    -2.3907816
C          -0.1326314    -2.9113932    -0.7853780
H           0.2607827    -3.8627888    -0.4326082
C           0.2196519    -1.7312116    -0.1131523
C          -0.3086758    -0.5199341    -0.5745034
H          -0.0522454     0.4048212    -0.0657282
C          -1.1658297    -0.4864063    -1.6770005
H          -1.5659412     0.4643553    -2.0196163
C           5.1270625     0.6409860    -1.3143953
H           5.7964526     1.3247082    -1.8280939
C           5.3660981    -0.7354339    -1.3307069
H           6.2276234    -1.1337646    -1.8610190
C           4.5061740    -1.6123329    -0.6770674
H           4.7039992    -2.6826555    -0.6982643
C           3.3796862    -1.1348400     0.0190881
C           3.1428212     0.2508027     0.0326805
H           2.2866535     0.6471322     0.5653351
C           4.0109017     1.1196974    -0.6280028
H           3.8056480     2.1872715    -0.6034080
31
386_C15H15N_7-0-15-16 (-90,) energy =    -635.3452830
C           1.2118649    -1.8293364     1.0280427
C           0.7894057    -2.5225522     2.3057038
H           1.5443886    -3.1049042     2.8253090
H          -0.2178987    -2.9256599     2.3510906
C           0.9552072    -1.0253224     2.2850823
H           0.0610335    -0.4093155     2.3162531
H           1.8188719    -0.6089344     2.7932649
N           2.6025105    -2.0386048     0.6766046
H           2.7676820    -2.9771558     0.3284820
C          -1.4993291    -1.7578133    -2.3441096
H          -2.1682311    -1.7483990    -3.2006069
C          -1.1838456    -2.9625194    -1.7125099
H          -1.6077471    -3.8958457    -2.0742527
C          -0.3276226    -2.9692039    -0.6115814
H          -0.0896197    -3.9093173    -0.1184342
C           0.2270692    -1.7786261    -0.1195854
C          -0.0981123    -0.5766350    -0.7629474
H           0.3182407     0.3565303    -0.3969751
C          -0.9547162    -0.5655485    -1.8651820
H          -1.1971848     0.3770680    -2.3490563
C           5.1328305     0.7615668    -1.2286260
H           5.7987304     1.4718545    -1.7097177
C           5.3366940    -0.6131496    -1.3698611
H           6.1665320    -0.9838831    -1.9665412
C           4.4803591    -1.5236740    -0.7586680
H           4.6499653    -2.5921418    -0.8799509
C           3.3934248    -1.0846249     0.0210347
C           3.1937036     0.3005568     0.1613436
H           2.3728030     0.6704401     0.7641480
C           4.0562838     1.2037163    -0.4592819
H           3.8795047     2.2694299    -0.3348652
31
386_C15H15N_7-0-15-16 (-75,) energy =    -635.3446246
C           1.2552998    -1.8567530     0.9741986
C           0.8876373    -2.5646894     2.2618881
H           1.6715194    -3.1354260     2.7500439
H          -0.1092819    -2.9860695     2.3458453
C           1.0220219    -1.0659504     2.2470263
H           0.1174790    -0.4674883     2.3068317
H           1.8918214    -0.6347604     2.7318277
N           2.6394100    -2.0261035     0.5805392
H           2.8096752    -2.9407791     0.1763718
C          -1.5601813    -1.8162098    -2.3181057
H          -2.2556851    -1.8133723    -3.1532297
C          -1.4232427    -2.9524191    -1.5204814
H          -2.0101044    -3.8426130    -1.7322750
C          -0.5299259    -2.9496853    -0.4477446
H          -0.4243343    -3.8418709     0.1643993
C           0.2355174    -1.8147740    -0.1448862
C           0.0924686    -0.6808685    -0.9603615
H           0.6805574     0.2070187    -0.7536284
C          -0.7972304    -0.6815233    -2.0345271
H          -0.8958725     0.2085908    -2.6505560
C           5.1890434     0.8848659    -1.1248784
H           5.8607676     1.6215435    -1.5554165
C           5.3927283    -0.4795829    -1.3445255
H           6.2288389    -0.8158073    -1.9527752
C           4.5293354    -1.4234947    -0.7976482
H           4.7005033    -2.4830733    -0.9792888
C           3.4327628    -1.0313279    -0.0054187
C           3.2330312     0.3445602     0.2130983
H           2.4027034     0.6818209     0.8220590
C           4.1036803     1.2814910    -0.3434159
H           3.9250391     2.3381012    -0.1586506
31
386_C15H15N_7-0-15-16 (-60,) energy =    -635.3438042
C           1.2601122    -1.9150900     0.8827158
C           0.9695459    -2.6411688     2.1836147
H           1.7917448    -3.1994537     2.6198600
H          -0.0100475    -3.0850202     2.3266019
C           1.0677150    -1.1423565     2.1776099
H           0.1513315    -0.5683845     2.2812280
H           1.9465879    -0.6883895     2.6234844
N           2.6285848    -2.0401872     0.4348747
H           2.8203267    -2.9342760    -0.0016579
C          -1.7205784    -1.8311966    -2.2696623
H          -2.4603395    -1.8120405    -3.0655636
C          -1.7332259    -2.8519242    -1.3205898
H          -2.4797572    -3.6402550    -1.3751969
C          -0.7803561    -2.8725786    -0.2994374
H          -0.7929721    -3.6874316     0.4183448
C           0.1948590    -1.8712043    -0.1957225
C           0.2032198    -0.8562085    -1.1682154
H           0.9579129    -0.0781172    -1.1264702
C          -0.7439691    -0.8355778    -2.1905216
H          -0.7189395    -0.0372939    -2.9279112
C           5.2501760     0.9733120    -0.9491267
H           5.9405672     1.7350612    -1.2987403
C           5.4991236    -0.3802647    -1.1912320
H           6.3906343    -0.6825783    -1.7352718
C           4.6145702    -1.3564485    -0.7459065
H           4.8253297    -2.4067555    -0.9391147
C           3.4450690    -1.0100607    -0.0388827
C           3.1969596     0.3556775     0.1981124
H           2.3040111     0.6614682     0.7301194
C           4.0938199     1.3246684    -0.2533061
H           3.8754785     2.3716145    -0.0565401
31
386_C15H15N_7-0-15-16 (-45,) energy =    -635.3435859
C           1.3486063    -1.9697745     0.7715460
C           1.1507589    -2.7285447     2.0753912
H           2.0204002    -3.2591862     2.4496372
H           0.2046295    -3.2215987     2.2697033
C           1.1889608    -1.2295918     2.0932692
H           0.2555076    -0.6952256     2.2452930
H           2.0678349    -0.7416992     2.5020693
N           2.6962566    -2.0408882     0.2663174
H           2.9333827    -2.9265043    -0.1619877
C          -1.8047955    -1.7932081    -2.2093067
H          -2.5901580    -1.7414125    -2.9586176
C          -1.9306098    -2.6444574    -1.1130548
H          -2.8138376    -3.2688032    -1.0041974
C          -0.9188723    -2.7110647    -0.1523538
H          -1.0356444    -3.3986202     0.6790366
C           0.2372150    -1.9252731    -0.2590887
C           0.3530488    -1.0779720    -1.3750780
H           1.2418270    -0.4679845    -1.4959358
C          -0.6538823    -1.0125649    -2.3364298
H          -0.5373495    -0.3476140    -3.1884472
C           5.3079205     1.0882573    -0.8414909
H           5.9943034     1.8815873    -1.1218753
C           5.6372242    -0.2518563    -1.0642482
H           6.5887824    -0.5108491    -1.5221490
C           4.7607370    -1.2691701    -0.7041888
H           5.0361566    -2.3083331    -0.8746175
C           3.5151102    -0.9777726    -0.1100485
C           3.1834296     0.3745473     0.1025468
H           2.2254494     0.6359946     0.5364932
C           4.0767714     1.3844278    -0.2576690
H           3.7938316     2.4196544    -0.0823885
31
386_C15H15N_7-0-15-16 (-30,) energy =    -635.3445889
C           1.3675021    -2.0336608     0.7399642
C           1.1908685    -2.8581649     2.0091972
H           2.0774744    -3.3802362     2.3549495
H           0.2633006    -3.3972986     2.1689436
C           1.1892958    -1.3628141     2.0975285
H           0.2425081    -0.8578637     2.2675574
H           2.0552712    -0.8697065     2.5276227
N           2.7136301    -2.0677245     0.2361972
H           2.9949850    -2.9485755    -0.1735197
C          -1.8273149    -1.7207550    -2.1842869
H          -2.6241545    -1.6307002    -2.9175775
C          -2.0612148    -2.3481262    -0.9609008
H          -3.0437972    -2.7541079    -0.7340285
C          -1.0368758    -2.4662496    -0.0206335
H          -1.2548068    -2.9614802     0.9203275
C           0.2485312    -1.9645085    -0.2786174
C           0.4653644    -1.3271601    -1.5113615
H           1.4460234    -0.9256460    -1.7410487
C          -0.5567928    -1.2109217    -2.4532387
H          -0.3561785    -0.7162094    -3.4001715
C           5.2148753     1.1771185    -0.7780751
H           5.8717541     2.0030789    -1.0339505
C           5.6192083    -0.1447962    -0.9849010
H           6.5995691    -0.3561060    -1.4049573
C           4.7815116    -1.2047046    -0.6552565
H           5.1141014    -2.2294119    -0.8106108
C           3.5021918    -0.9724581    -0.1100273
C           3.0935781     0.3609141     0.0848244
H           2.1048095     0.5710985     0.4760567
C           3.9486229     1.4134546    -0.2430978
H           3.6082679     2.4337915    -0.0833834
31
386_C15H15N_7-0-15-16 (-15,) energy =    -635.3462937
C           1.4111379    -2.0807467     0.7307975
C           1.2117518    -2.9814355     1.9446826
H           2.0865075    -3.5318596     2.2772098
H           0.2756899    -3.5239419     2.0330385
C           1.2168479    -1.4949573     2.1247850
H           0.2740415    -0.9900402     2.3161165
H           2.0837897    -1.0372348     2.5905811
N           2.7613214    -2.0872032     0.2440390
H           3.0674983    -2.9581074    -0.1692006
C          -1.7739251    -1.6638904    -2.1868168
H          -2.5688346    -1.5531940    -2.9193121
C          -2.0666370    -2.0594681    -0.8806961
H          -3.0942847    -2.2594271    -0.5879805
C          -1.0459210    -2.2026159     0.0580080
H          -1.3097190    -2.5037869     1.0679871
C           0.2958273    -1.9619224    -0.2837805
C           0.5726525    -1.5516025    -1.5962090
H           1.5965485    -1.3464049    -1.8877434
C          -0.4486413    -1.4092510    -2.5370571
H          -0.2020712    -1.0936907    -3.5476100
C           5.1189313     1.2556489    -0.7909275
H           5.7380641     2.1087400    -1.0520001
C           5.5797065    -0.0475247    -0.9975128
H           6.5662979    -0.2167081    -1.4220197
C           4.7901268    -1.1423120    -0.6616313
H           5.1652507    -2.1523701    -0.8163251
C           3.5057689    -0.9625745    -0.1102273
C           3.0400102     0.3509624     0.0855042
H           2.0454491     0.5170296     0.4833420
C           3.8465394     1.4387643    -0.2490264
H           3.4638617     2.4439789    -0.0893525
31
386_C15H15N_7-0-15-16 (0,) energy =    -635.3472081
C           1.4503389    -2.1325600     0.7179664
C           1.2148209    -3.1072784     1.8653466
H           2.0671148    -3.7025373     2.1797546
H           0.2612660    -3.6266642     1.8885335
C           1.2476168    -1.6362846     2.1447265
H           0.3172246    -1.1228137     2.3696187
H           2.1230066    -1.2316438     2.6422001
N           2.8093721    -2.1103005     0.2573681
H           3.1249239    -2.9621618    -0.1888472
C          -1.6935265    -1.6202771    -2.2261172
H          -2.4789808    -1.4952446    -2.9663972
C          -2.0148011    -1.8055424    -0.8800935
H          -3.0549746    -1.8268694    -0.5650058
C          -1.0069780    -1.9641258     0.0693631
H          -1.2891149    -2.1061809     1.1092941
C           0.3490306    -1.9449880    -0.3002255
C           0.6561529    -1.7551782    -1.6547868
H           1.6935838    -1.7249344    -1.9690903
C          -0.3526913    -1.5950992    -2.6064970
H          -0.0835281    -1.4475948    -3.6492719
C           5.0095137     1.3193146    -0.8413121
H           5.5883834     2.1955058    -1.1179724
C           5.5099202     0.0348074    -1.0706481
H           6.4871723    -0.0966314    -1.5287495
C           4.7707660    -1.0890153    -0.7157191
H           5.1761165    -2.0843410    -0.8890225
C           3.5007608    -0.9568869    -0.1209628
C           2.9951673     0.3368429     0.0998119
H           2.0107347     0.4655482     0.5348528
C           3.7505620     1.4543159    -0.2556110
H           3.3385763     2.4445441    -0.0766560
31
386_C15H15N_7-0-15-16 (15,) energy =    -635.3468547
C           1.4661021    -2.1641860     0.7364177
C           1.2118270    -3.2014818     1.8225682
H           2.0479290    -3.8329866     2.1097115
H           0.2457158    -3.6975905     1.8048160
C           1.2648255    -1.7487144     2.1875406
H           0.3460993    -1.2388893     2.4607442
H           2.1504676    -1.3876646     2.6998177
N           2.8310334    -2.1140642     0.2928161
H           3.1709792    -2.9565321    -0.1533351
C          -1.6411604    -1.5802348    -2.2333949
H          -2.4174298    -1.4462307    -2.9817596
C          -1.9558609    -1.5383871    -0.8742848
H          -2.9820164    -1.3723696    -0.5562634
C          -0.9588426    -1.7061023     0.0859691
H          -1.2370279    -1.6720426     1.1355400
C           0.3788723    -1.9188958    -0.2859014
C           0.6779068    -1.9650225    -1.6551277
H           1.7039871    -2.1188264    -1.9723488
C          -0.3178848    -1.7942069    -2.6175017
H          -0.0537292    -1.8278305    -3.6713662
C           4.9107441     1.3799200    -0.8366398
H           5.4581966     2.2737444    -1.1208466
C           5.4466351     0.1115828    -1.0753575
H           6.4203410     0.0106144    -1.5485119
C           4.7467922    -1.0344542    -0.7117952
H           5.1791220    -2.0167539    -0.8943258
C           3.4830436    -0.9413503    -0.0974627
C           2.9422410     0.3356584     0.1342557
H           1.9624658     0.4335809     0.5874899
C           3.6575190     1.4760113    -0.2313881
H           3.2189283     2.4531536    -0.0439614
31
386_C15H15N_7-0-15-16 (30,) energy =    -635.3459333
C           1.5001207    -2.2133836     0.7326377
C           1.2646325    -3.3239775     1.7463425
H           2.1087577    -3.9632597     1.9905410
H           0.3035730    -3.8277976     1.7016134
C           1.2962408    -1.8954181     2.2057529
H           0.3706008    -1.4323482     2.5313000
H           2.1796930    -1.5534090     2.7343305
N           2.8674644    -2.1222438     0.2942469
H           3.2272797    -2.9498551    -0.1640057
C          -1.5907678    -1.5481940    -2.2380375
H          -2.3625541    -1.3970163    -2.9877906
C          -1.8444267    -1.2618871    -0.8968933
H          -2.8173226    -0.8830022    -0.5942654
C          -0.8515559    -1.4511033     0.0657935
H          -1.0771917    -1.2116076     1.1003339
C           0.4176230    -1.9315522    -0.2879039
C           0.6559523    -2.2168085    -1.6411127
H           1.6341235    -2.5772248    -1.9448303
C          -0.3320470    -2.0257980    -2.6056781
H          -0.1155267    -2.2500788    -3.6470135
C           4.8022044     1.4420300    -0.8720611
H           5.3126912     2.3546373    -1.1653318
C           5.3674452     0.1927779    -1.1414980
H           6.3270513     0.1257180    -1.6482895
C           4.7139515    -0.9771265    -0.7676843
H           5.1676820    -1.9443745    -0.9770148
C           3.4700602    -0.9275144    -0.1102669
C           2.9002217     0.3300787     0.1542659
H           1.9356163     0.3945455     0.6446163
C           3.5678744     1.4947938    -0.2241045
H           3.1075089     2.4566090    -0.0113300
31
386_C15H15N_7-0-15-16 (45,) energy =    -635.3455518
C           1.5164771    -2.2480258     0.7397244
C           1.3092610    -3.4022443     1.7067459
H           2.1727701    -4.0211417     1.9349085
H           0.3650091    -3.9348285     1.6433561
C           1.2911836    -1.9888301     2.2182964
H           0.3431932    -1.5777288     2.5493415
H           2.1549831    -1.6394087     2.7737993
N           2.8840866    -2.1167624     0.3034925
H           3.2477398    -2.9213749    -0.1915997
C          -1.5573300    -1.5165461    -2.2296510
H          -2.3232520    -1.3439045    -2.9808627
C          -1.6901802    -0.9771196    -0.9512557
H          -2.5598187    -0.3751609    -0.7003943
C          -0.7026078    -1.1961805     0.0122752
H          -0.8181802    -0.7517595     0.9962437
C           0.4328055    -1.9617634    -0.2795444
C           0.5548603    -2.4935685    -1.5728810
H           1.4328196    -3.0812942    -1.8286405
C          -0.4258310    -2.2756289    -2.5377046
H          -0.3066932    -2.6986759    -3.5318621
C           4.7176640     1.5119649    -0.8300983
H           5.2029448     2.4408173    -1.1150679
C           5.2930082     0.2805664    -1.1545627
H           6.2348439     0.2438327    -1.6965855
C           4.6713308    -0.9101255    -0.7924465
H           5.1318554    -1.8632341    -1.0469315
C           3.4510297    -0.9005618    -0.0907701
C           2.8719782     0.3394289     0.2301557
H           1.9266461     0.3738213     0.7592489
C           3.5064468     1.5256955    -0.1380454
H           3.0389181     2.4732244     0.1188009
31
386_C15H15N_7-0-15-16 (60,) energy =    -635.3456462
C           1.5309084    -2.2827492     0.7176043
C           1.3420068    -3.4568073     1.6601009
H           2.2234084    -4.0454382     1.8984919
H           0.4180369    -4.0209179     1.5750183
C           1.2689804    -2.0504259     2.1916455
H           0.2975073    -1.6712950     2.4936855
H           2.1040068    -1.6871656     2.7814527
N           2.9007574    -2.1085066     0.2924739
H           3.2509473    -2.8755639    -0.2692997
C          -1.5014323    -1.5226298    -2.2797796
H          -2.2552725    -1.3372726    -3.0401914
C          -1.4880342    -0.7715325    -1.1055167
H          -2.2296062     0.0072966    -0.9475006
C          -0.5168611    -1.0101321    -0.1297120
H          -0.5125677    -0.4120969     0.7772789
C           0.4520451    -2.0037806    -0.3074343
C           0.4266852    -2.7515273    -1.4948366
H           1.1697390    -3.5306340    -1.6519312
C          -0.5374570    -2.5160251    -2.4721747
H          -0.5400679    -3.1094542    -3.3828717
C           4.6586189     1.5877496    -0.7476861
H           5.1253261     2.5329505    -1.0089543
C           5.2141058     0.3783808    -1.1732980
H           6.1216332     0.3754414    -1.7720799
C           4.6148956    -0.8328367    -0.8424143
H           5.0586987    -1.7683942    -1.1785594
C           3.4387920    -0.8677053    -0.0698173
C           2.8810896     0.3507869     0.3544020
H           1.9736497     0.3522429     0.9466480
C           3.4912509     1.5582764     0.0155709
H           3.0403935     2.4882158     0.3537277
31
386_C15H15N_7-0-15-16 (75,) energy =    -635.3455787
C           1.5222755    -2.2896437     0.6752006
C           1.3609838    -3.4709402     1.6092221
H           2.2559699    -4.0368848     1.8507885
H           0.4517199    -4.0583386     1.5222755
C           1.2522853    -2.0683437     2.1483156
H           0.2695845    -1.7072150     2.4374149
H           2.0745954    -1.6940217     2.7491978
N           2.8865880    -2.0744194     0.2402259
H           3.2093883    -2.7962344    -0.3948390
C          -1.5155353    -1.5598807    -2.3198489
H          -2.2691760    -1.3800252    -3.0818937
C          -1.3195440    -0.6361578    -1.2934161
H          -1.9197749     0.2691165    -1.2533923
C          -0.3515438    -0.8691832    -0.3137532
H          -0.2093629    -0.1454537     0.4834783
C           0.4347434    -2.0269990    -0.3435211
C           0.2224452    -2.9508522    -1.3779161
H           0.8151547    -3.8631167    -1.4065780
C          -0.7407680    -2.7219192    -2.3588787
H          -0.8924224    -3.4522320    -3.1495706
C           4.6039631     1.6789072    -0.6662426
H           5.0617787     2.6369741    -0.8941564
C           5.1022032     0.5006220    -1.2277353
H           5.9553873     0.5347785    -1.9008145
C           4.5128819    -0.7264738    -0.9403189
H           4.9107738    -1.6367408    -1.3855813
C           3.4060048    -0.8115036    -0.0746534
C           2.9080104     0.3767788     0.4879573
H           2.0614052     0.3411666     1.1631089
C           3.5057399     1.6012127     0.1904580
H           3.1014453     2.5060626     0.6379587
31
386_C15H15N_7-0-15-16 (90,) energy =    -635.3451846
C           1.5391336    -2.3101102     0.6347108
C           1.4048995    -3.4993550     1.5614750
H           2.3130750    -4.0446190     1.8001422
H           0.5094536    -4.1075796     1.4762334
C           1.2651571    -2.1032844     2.1097635
H           0.2746597    -1.7604885     2.3950380
H           2.0780566    -1.7186740     2.7171158
N           2.8975562    -2.0550510     0.1971019
H           3.2069924    -2.7342784    -0.4901073
C          -1.5180533    -1.6314534    -2.3538920
H          -2.2770546    -1.4633001    -3.1133392
C          -1.1247063    -0.5901380    -1.5118492
H          -1.5769839     0.3930068    -1.6134727
C          -0.1533599    -0.8057247    -0.5330111
H           0.1412715     0.0100076     0.1193239
C           0.4451207    -2.0645151    -0.3817376
C           0.0348956    -3.1033921    -1.2298261
H           0.4803231    -4.0892268    -1.1155665
C          -0.9359198    -2.8920821    -2.2090296
H          -1.2412783    -3.7119828    -2.8541523
C           4.6136810     1.7396367    -0.5314076
H           5.0726378     2.7066934    -0.7145444
C           5.0614301     0.6000972    -1.2038631
H           5.8757728     0.6736395    -1.9204700
C           4.4694911    -0.6379473    -0.9738749
H           4.8271283    -1.5166653    -1.5077708
C           3.4114489    -0.7755095    -0.0552682
C           2.9658112     0.3747819     0.6207296
H           2.1611955     0.3007354     1.3427124
C           3.5641196     1.6110293     0.3786902
H           3.2004220     2.4845369     0.9145696
31
386_C15H15N_7-0-15-16 (105,) energy =    -635.3444696
C           1.5576712    -2.3144163     0.5566927
C           1.4877627    -3.5067072     1.4892390
H           2.4210566    -4.0200038     1.6985941
H           0.6120937    -4.1460746     1.4391649
C           1.3149995    -2.1179802     2.0412191
H           0.3201201    -1.8083010     2.3482427
H           2.1274385    -1.7035905     2.6291588
N           2.8957576    -2.0070489     0.0934916
H           3.2017470    -2.6427393    -0.6350942
C          -1.6161592    -1.7078906    -2.3317702
H          -2.4072711    -1.5563730    -3.0613670
C          -1.0126954    -0.6120763    -1.7109174
H          -1.3334369     0.3972466    -1.9557709
C          -0.0018540    -0.8039562    -0.7695598
H           0.4572288     0.0570584    -0.2955323
C           0.4321758    -2.0966328    -0.4336552
C          -0.1834386    -3.1865395    -1.0646641
H           0.1399988    -4.1953757    -0.8218394
C          -1.1978492    -2.9977319    -2.0052540
H          -1.6601311    -3.8591320    -2.4806707
C           4.6463838     1.8128306    -0.3805928
H           5.1154821     2.7848592    -0.5003470
C           5.0954979     0.7098387    -1.1109306
H           5.9216952     0.8171845    -1.8094937
C           4.4916090    -0.5343999    -0.9616718
H           4.8528126    -1.3839221    -1.5386091
C           3.4169767    -0.7178821    -0.0693226
C           2.9688871     0.3969608     0.6638680
H           2.1472481     0.2925546     1.3624698
C           3.5811080     1.6400197     0.5031908
H           3.2136376     2.4839644     1.0821518
31
386_C15H15N_7-0-15-16 (120,) energy =    -635.3437166
C           1.1577698    -1.4128285     0.9666497
C           0.7306108    -1.5420936     2.4181236
H           1.4232331    -2.0517509     3.0802848
H          -0.3179700    -1.7029372     2.6446259
C           1.1359824    -0.1991039     1.8823261
H           0.3579441     0.5385781     1.7079260
H           2.0919440     0.2075111     2.1955591
N           2.4686401    -1.9566791     0.6943932
H           2.4721353    -2.9673151     0.6241295
C          -1.7759892    -1.8406607    -2.2031531
H          -2.5068663    -1.9473505    -3.0003391
C          -0.5825902    -1.1503224    -2.4279118
H          -0.3796968    -0.7166572    -3.4038170
C           0.3538349    -1.0085594    -1.4053935
H           1.2767079    -0.4725781    -1.5997178
C           0.1216947    -1.5558896    -0.1314388
C          -1.0759026    -2.2540098     0.0751701
H          -1.2740410    -2.7096838     1.0406006
C          -2.0177349    -2.3938225    -0.9469535
H          -2.9375227    -2.9417373    -0.7585172
C           5.6803146    -0.2166437    -1.4326304
H           6.5192218     0.2178993    -1.9679099
C           5.6457495    -1.5848874    -1.1502670
H           6.4631587    -2.2281586    -1.4668330
C           4.5713435    -2.1429528    -0.4663740
H           4.5620230    -3.2096369    -0.2496398
C           3.4887266    -1.3469268    -0.0393799
C           3.5263228     0.0301997    -0.3314864
H           2.7074945     0.6720248    -0.0290241
C           4.6119335     0.5771921    -1.0167323
H           4.6128053     1.6436782    -1.2291166
31
386_C15H15N_7-0-15-16 (135,) energy =    -635.3436085
C           1.1593627    -1.4939682     0.9213314
C           0.7926181    -1.6742973     2.3869128
H           1.5207988    -2.2021388     2.9943533
H          -0.2402552    -1.8582563     2.6614790
C           1.1626128    -0.3116760     1.8822264
H           0.3698055     0.4205987     1.7587330
H           2.1258616     0.0994623     2.1662197
N           2.4600553    -2.0171044     0.5885674
H           2.4951487    -3.0256394     0.5127730
C          -1.8541806    -1.7847317    -2.1927795
H          -2.6019803    -1.8553693    -2.9781055
C          -0.5544197    -1.3694716    -2.4894651
H          -0.2829337    -1.1152829    -3.5109102
C           0.4048338    -1.2785247    -1.4824177
H           1.4106486    -0.9611931    -1.7358121
C           0.0902511    -1.5953858    -0.1492981
C          -1.2144516    -2.0268516     0.1289852
H          -1.4905461    -2.3121829     1.1388653
C          -2.1780403    -2.1154348    -0.8782005
H          -3.1808041    -2.4546934    -0.6309468
C           5.7018149    -0.1007047    -1.3237551
H           6.5476259     0.3801384    -1.8059424
C           5.7298231    -1.4674768    -1.0318592
H           6.6038448    -2.0619248    -1.2866544
C           4.6490780    -2.0848971    -0.4125238
H           4.6900379    -3.1478054    -0.1816542
C           3.4947138    -1.3517381    -0.0672584
C           3.4668856     0.0227456    -0.3734393
H           2.5868012     0.6116850    -0.1432183
C           4.5625343     0.6300632    -0.9886219
H           4.5130275     1.6927291    -1.2139261
31
386_C15H15N_7-0-15-16 (150,) energy =    -635.3445569
C           1.1373670    -1.5493604     0.9229179
C           0.7701656    -1.8113999     2.3780554
H           1.5085011    -2.3601533     2.9541581
H          -0.2582728    -2.0399234     2.6360571
C           1.1215798    -0.4202993     1.9483885
H           0.3200170     0.3071297     1.8551982
H           2.0789640    -0.0109018     2.2545941
N           2.4394236    -2.0514596     0.5769813
H           2.5000653    -3.0583355     0.5003266
C          -1.8775476    -1.7333348    -2.1985702
H          -2.6251880    -1.7829247    -2.9855644
C          -0.5246614    -1.6055691    -2.5144330
H          -0.2088036    -1.5554750    -3.5533672
C           0.4347952    -1.5450506    -1.5038875
H           1.4813886    -1.4535533    -1.7721107
C           0.0679627    -1.6013822    -0.1490961
C          -1.2956214    -1.7460995     0.1515770
H          -1.6273494    -1.8108029     1.1829814
C          -2.2568086    -1.8036660    -0.8584076
H          -3.3048821    -1.9151830    -0.5922409
C           5.6232232     0.0023263    -1.2842580
H           6.4533294     0.5214591    -1.7539597
C           5.7108348    -1.3613218    -0.9899715
H           6.6158138    -1.9141705    -1.2298848
C           4.6507460    -2.0278873    -0.3852374
H           4.7372548    -3.0870534    -0.1498711
C           3.4598436    -1.3468996    -0.0600647
C           3.3705147     0.0235714    -0.3702723
H           2.4572074     0.5672624    -0.1578290
C           4.4460703     0.6805825    -0.9687948
H           4.3509727     1.7391785    -1.1984605
31
386_C15H15N_7-0-15-16 (165,) energy =    -635.3462662
C           1.1502240    -1.5974014     0.9508262
C           0.7337297    -1.9459396     2.3752093
H           1.4531539    -2.5193564     2.9516644
H          -0.3036364    -2.2063814     2.5596589
C           1.0864883    -0.5303970     2.0382899
H           0.2859431     0.1998816     1.9581879
H           2.0314880    -0.1362774     2.3983402
N           2.4667165    -2.0682407     0.6242898
H           2.5510318    -3.0728863     0.5384036
C          -1.8304974    -1.6918191    -2.2025268
H          -2.5739145    -1.7238402    -2.9943408
C          -0.4760906    -1.8418642    -2.4969520
H          -0.1539925    -1.9921052    -3.5242233
C           0.4784809    -1.8036498    -1.4791413
H           1.5262987    -1.9257910    -1.7293087
C           0.1040268    -1.6062217    -0.1417846
C          -1.2655920    -1.4657019     0.1404238
H          -1.6021914    -1.3125668     1.1619143
C          -2.2194883    -1.5022352    -0.8755344
H          -3.2713023    -1.3886874    -0.6255000
C           5.5260989     0.0908843    -1.3230431
H           6.3238565     0.6393498    -1.8150362
C           5.6707424    -1.2685540    -1.0329105
H           6.5879874    -1.7886131    -1.2981714
C           4.6512814    -1.9724991    -0.4003879
H           4.7813351    -3.0280900    -0.1687994
C           3.4479146    -1.3326822    -0.0424796
C           3.3005952     0.0332464    -0.3466116
H           2.3750818     0.5435713    -0.1058577
C           4.3349532     0.7276521    -0.9741025
H           4.1970268     1.7823558    -1.1997432
31
386_C15H15N_7-0-15-16 (180,) energy =    -635.3472230
C           1.1728579    -1.6612884     0.9718236
C           0.7132338    -2.0787726     2.3638153
H           1.4051501    -2.6815814     2.9446731
H          -0.3336777    -2.3427220     2.4814222
C           1.0759593    -0.6486075     2.1063392
H           0.2845727     0.0934388     2.0523744
H           2.0166359    -0.2824059     2.5046239
N           2.5059698    -2.0892212     0.6573888
H           2.6307725    -3.0905239     0.5809413
C          -1.7528289    -1.6423520    -2.2303408
H          -2.4848659    -1.6443762    -3.0332827
C          -0.4405432    -2.0475725    -2.4687332
H          -0.1398236    -2.3675758    -3.4630867
C           0.4996784    -2.0447199    -1.4367403
H           1.5175186    -2.3570214    -1.6429020
C           0.1516588    -1.6344622    -0.1422309
C          -1.1748581    -1.2280206     0.0834321
H          -1.4877376    -0.9030206     1.0721905
C          -2.1145006    -1.2317954    -0.9458641
H          -3.1332992    -0.9126151    -0.7412337
C           5.4287336     0.1711604    -1.3808244
H           6.1916942     0.7466536    -1.8966007
C           5.6333191    -1.1801670    -1.0892665
H           6.5623260    -1.6662648    -1.3770621
C           4.6582006    -1.9193808    -0.4274393
H           4.8334630    -2.9685055    -0.1958717
C           3.4423417    -1.3229735    -0.0399721
C           3.2349725     0.0346572    -0.3433850
H           2.2985859     0.5107914    -0.0761670
C           4.2244189     0.7647185    -1.0019059
H           4.0411550     1.8125913    -1.2271070
