31
386_C15H15N_0-7-26-24 (-165,) energy =    -635.3471318
C           1.1964012    -1.7243328     1.0495462
C           0.7091613    -2.1874451     2.4169482
H           1.3934545    -2.7989521     2.9978489
H          -0.3373461    -2.4659857     2.4993260
C           1.0604005    -0.7461475     2.2103170
H           0.2628361    -0.0105267     2.1620518
H           1.9881517    -0.3836676     2.6407855
N           2.5455918    -2.1251369     0.7595195
H           2.6691180    -3.1233964     0.6405283
C          -1.6609852    -1.6686005    -2.2141985
H          -2.3767133    -1.6615633    -3.0317030
C          -0.3515677    -2.0984533    -2.4230364
H          -0.0367277    -2.4289195    -3.4095361
C           0.5675307    -2.1064003    -1.3721666
H           1.5837554    -2.4358374    -1.5584563
C           0.2008408    -1.6830878    -0.0869538
C          -1.1224017    -1.2510414     0.1085225
H          -1.4496819    -0.9162645     1.0892422
C          -2.0410333    -1.2444039    -0.9395507
H          -3.0577054    -0.9054021    -0.7575175
C           5.3795754     0.1630493    -1.3751278
H           6.1199580     0.7452427    -1.9157191
C           5.5713066    -1.2035792    -1.1566209
H           6.4667866    -1.6956549    -1.5282215
C           4.6229714    -1.9518636    -0.4660122
H           4.7866839    -3.0146504    -0.2959765
C           3.4524831    -1.3474469     0.0313199
C           3.2564055     0.0255259    -0.2004584
H           2.3512980     0.5083980     0.1495972
C           4.2162016     0.7635719    -0.8926897
H           4.0426768     1.8237161    -1.0608519
31
386_C15H15N_0-7-26-24 (-150,) energy =    -635.3460821
C           1.2037901    -1.7046982     1.1072738
C           0.6722022    -2.1867489     2.4513459
H           1.3457514    -2.7864621     3.0565502
H          -0.3704255    -2.4882605     2.4883071
C           0.9993140    -0.7367800     2.2668335
H           0.1897492    -0.0166636     2.1932855
H           1.9008629    -0.3610402     2.7393155
N           2.5768185    -2.0807544     0.8762901
H           2.6891488    -3.0785773     0.7315038
C          -1.5422399    -1.7208848    -2.2518265
H          -2.2306959    -1.7329149    -3.0923513
C          -0.2260507    -2.1513758    -2.4091979
H           0.1219370    -2.5015284    -3.3776214
C           0.6589601    -2.1348101    -1.3294909
H           1.6807019    -2.4640187    -1.4808399
C           0.2510649    -1.6851893    -0.0655388
C          -1.0793004    -1.2537552     0.0774583
H          -1.4394867    -0.9005311     1.0398642
C          -1.9640609    -1.2717444    -0.9990910
H          -2.9867721    -0.9319648    -0.8565346
C           5.3031639     0.1419884    -1.4677204
H           6.0142482     0.7075822    -2.0625852
C           5.4057881    -1.2470798    -1.3687253
H           6.1993565    -1.7752086    -1.8915510
C           4.4888530    -1.9733802    -0.6132289
H           4.5774560    -3.0565629    -0.5463789
C           3.4542977    -1.3226464     0.0840531
C           3.3446602     0.0741006    -0.0307279
H           2.5376661     0.5955633     0.4711762
C           4.2639510     0.7890180    -0.7969923
H           4.1601634     1.8688184    -0.8708068
31
386_C15H15N_0-7-26-24 (-135,) energy =    -635.3447091
C           1.1694111    -1.8461061     1.1648177
C           0.6473060    -2.5394547     2.4033203
H           1.3592913    -3.1215341     2.9811087
H          -0.3599302    -2.9437277     2.3675590
C           0.8143460    -1.0409165     2.3961717
H          -0.0804069    -0.4261123     2.3613996
H           1.6353253    -0.6273727     2.9727039
N           2.5894792    -2.0666378     0.9279627
H           2.7499567    -3.0231093     0.6241169
C          -1.2773667    -1.7151246    -2.3980442
H          -1.8820387    -1.6880185    -3.3006854
C          -0.8895024    -2.9398723    -1.8493671
H          -1.1941949    -3.8701637    -2.3219911
C          -0.1168057    -2.9705399    -0.6892680
H           0.1742890    -3.9268238    -0.2590850
C           0.2824387    -1.7839987    -0.0568158
C          -0.1137500    -0.5629332    -0.6164891
H           0.1867216     0.3650479    -0.1388456
C          -0.8883001    -0.5274989    -1.7778577
H          -1.1868754     0.4295633    -2.1977635
C           4.9624168     0.5934332    -1.3534465
H           5.5843415     1.2715480    -1.9305748
C           5.0415812    -0.7857280    -1.5528111
H           5.7249256    -1.1920021    -2.2943841
C           4.2349466    -1.6542079    -0.8203794
H           4.2934632    -2.7267426    -0.9969692
C           3.3461190    -1.1647210     0.1511826
C           3.2680744     0.2252650     0.3461474
H           2.5902279     0.6261639     1.0916443
C           4.0668910     1.0873799    -0.4026591
H           3.9912279     2.1588361    -0.2336882
31
386_C15H15N_0-7-26-24 (-120,) energy =    -635.3433903
C           1.1678941    -1.8370325     1.1928062
C           0.6199694    -2.5086347     2.4305501
H           1.3234091    -3.0665887     3.0414709
H          -0.3809325    -2.9267769     2.3786680
C           0.7681890    -1.0075545     2.3927525
H          -0.1321688    -0.4049719     2.3153706
H           1.5645148    -0.5712352     2.9866150
N           2.6018535    -2.0419930     0.9974780
H           2.7579901    -2.9943467     0.6748129
C          -1.1704555    -1.7924247    -2.4430620
H          -1.7477976    -1.7857424    -3.3638420
C          -0.8828415    -3.0003066    -1.8037569
H          -1.2376185    -3.9379928    -2.2240089
C          -0.1450179    -3.0043108    -0.6200410
H           0.0692480    -3.9465252    -0.1196828
C           0.3162578    -1.8072369    -0.0540968
C           0.0210956    -0.6022529    -0.7053236
H           0.3739266     0.3327242    -0.2796341
C          -0.7167388    -0.5938513    -1.8902510
H          -0.9375390     0.3503668    -2.3813552
C           4.8498186     0.6383734    -1.3932336
H           5.4374393     1.3231184    -1.9980772
C           4.7692864    -0.7129872    -1.7303561
H           5.2891193    -1.0891764    -2.6078925
C           4.0040158    -1.5882608    -0.9601302
H           3.9262717    -2.6354596    -1.2458919
C           3.3308981    -1.1365840     0.1851190
C           3.4164291     0.2252706     0.5201956
H           2.9079693     0.5911586     1.4058322
C           4.1628414     1.0993152    -0.2673316
H           4.2189744     2.1489046     0.0107681
31
386_C15H15N_0-7-26-24 (-105,) energy =    -635.3419251
C           1.1700932    -1.8235361     1.1948799
C           0.5884533    -2.4434566     2.4435850
H           1.2768345    -2.9745500     3.0941572
H          -0.4116474    -2.8629885     2.3860013
C           0.7412487    -0.9444959     2.3461950
H          -0.1548360    -0.3442718     2.2181120
H           1.5207551    -0.4830962     2.9430862
N           2.6133487    -2.0308031     1.0456824
H           2.7615855    -2.9761751     0.6962999
C          -1.0775190    -1.9040133    -2.4970938
H          -1.6332079    -1.9279890    -3.4308470
C          -0.8422718    -3.0849106    -1.7898329
H          -1.2161074    -4.0322072    -2.1701848
C          -0.1330891    -3.0492965    -0.5888435
H           0.0397753    -3.9698033    -0.0350213
C           0.3508852    -1.8384765    -0.0734183
C           0.1102314    -0.6609367    -0.7941937
H           0.4829745     0.2836260    -0.4077945
C          -0.5992210    -0.6921349    -1.9957319
H          -0.7788935     0.2313002    -2.5402559
C           4.8073323     0.7033019    -1.3428614
H           5.3790522     1.4032614    -1.9458613
C           4.5225944    -0.5745534    -1.8249632
H           4.8642715    -0.8742139    -2.8124563
C           3.7785431    -1.4684082    -1.0539018
H           3.5344321    -2.4530906    -1.4465376
C           3.3379977    -1.1123587     0.2287571
C           3.6324432     0.1728284     0.7096827
H           3.3105360     0.4516034     1.7077351
C           4.3521042     1.0726416    -0.0744791
H           4.5749056     2.0625209     0.3159047
31
386_C15H15N_0-7-26-24 (-90,) energy =    -635.3403673
C           1.1559475    -1.8014178     1.1669838
C           0.5502106    -2.3395296     2.4425359
H           1.2240206    -2.8435694     3.1287066
H          -0.4567079    -2.7446615     2.3988159
C           0.7285499    -0.8509937     2.2582919
H          -0.1572273    -0.2467568     2.0853400
H           1.5097766    -0.3625487     2.8309681
N           2.6017623    -2.0281748     1.0551745
H           2.7393688    -2.9691099     0.6876799
C          -1.0567738    -2.0521917    -2.5386173
H          -1.6039972    -2.1194861    -3.4752561
C          -0.8108819    -3.2023150    -1.7852995
H          -1.1685924    -4.1684115    -2.1324071
C          -0.1133391    -3.1112392    -0.5804412
H           0.0660789    -4.0073252     0.0102064
C           0.3497987    -1.8748622    -0.1073168
C           0.0984210    -0.7291174    -0.8741074
H           0.4535756     0.2345680    -0.5194509
C          -0.6009159    -0.8153743    -2.0791119
H          -0.7896079     0.0843559    -2.6591596
C           4.8130580     0.7585140    -1.2630317
H           5.3865782     1.4740173    -1.8460772
C           4.2926758    -0.3858457    -1.8692348
H           4.4526165    -0.5623377    -2.9298767
C           3.5484340    -1.3004118    -1.1224181
H           3.1244701    -2.1786455    -1.6027814
C           3.3434686    -1.1002326     0.2502695
C           3.8739476     0.0487407     0.8527167
H           3.7327494     0.1928962     1.9194066
C           4.5959762     0.9743549     0.0998850
H           5.0055706     1.8578029     0.5830722
31
386_C15H15N_0-7-26-24 (-75,) energy =    -635.3400921
C           0.9273419    -1.4938889     0.7564938
C           0.4122106    -1.3746016     2.1844539
H           1.0978643    -1.6430759     2.9854477
H          -0.6210316    -1.6555597     2.3698293
C           0.7053298    -0.1323821     1.3973063
H          -0.1220089     0.4684199     1.0311585
H           1.5932603     0.4379414     1.6526351
N           2.3026448    -1.9638229     0.5892439
H           2.5676787    -2.5546817     1.3709970
C          -1.8185067    -2.8641654    -2.3089450
H          -2.5047784    -3.2086474    -3.0778881
C          -0.4822102    -3.2617398    -2.3209683
H          -0.1181397    -3.9236983    -3.1028953
C           0.3983276    -2.8176414    -1.3326666
H           1.4355766    -3.1335159    -1.3385451
C          -0.0344185    -1.9628077    -0.3092886
C          -1.3845924    -1.5727870    -0.3076852
H          -1.7628482    -0.9135237     0.4693567
C          -2.2648537    -2.0166262    -1.2932174
H          -3.3035108    -1.6967391    -1.2662625
C           5.4716781     0.6964181    -0.3116979
H           6.2948683     1.3623927    -0.5546514
C           4.4934628     0.4062840    -1.2673516
H           4.5601600     0.8402592    -2.2618083
C           3.4464631    -0.4623682    -0.9679443
H           2.7023500    -0.7119401    -1.7184622
C           3.3340069    -1.0251966     0.3134205
C           4.3218345    -0.7343309     1.2654206
H           4.2544719    -1.1811673     2.2557018
C           5.3856055     0.1144359     0.9528766
H           6.1420353     0.3250727     1.7046714
31
386_C15H15N_0-7-26-24 (-60,) energy =    -635.3428833
C           0.8902291    -1.4542206     0.7821082
C           0.3301759    -1.2961833     2.1896488
H           0.9917051    -1.5400866     3.0180806
H          -0.7077648    -1.5749245     2.3498047
C           0.6460310    -0.0756506     1.3780544
H          -0.1701647     0.5132228     0.9699004
H           1.5255679     0.5026539     1.6440658
N           2.2672379    -1.9172380     0.6813480
H           2.5163502    -2.5085646     1.4665227
C          -1.7398378    -2.9265883    -2.3339246
H          -2.3959226    -3.2984965    -3.1162814
C          -0.3991380    -3.3073110    -2.2939102
H          -0.0010994    -3.9819500    -3.0478702
C           0.4430424    -2.8289218    -1.2884373
H           1.4847502    -3.1288111    -1.2551527
C          -0.0347360    -1.9566588    -0.3006817
C          -1.3881632    -1.5816165    -0.3518517
H          -1.8003122    -0.9085297     0.3955277
C          -2.2297703    -2.0602710    -1.3545855
H          -3.2724215    -1.7529210    -1.3698529
C           5.4669966     0.6421757    -0.3570788
H           6.2976171     1.2844554    -0.6353860
C           4.3521704     0.5249638    -1.1921624
H           4.3171104     1.0721585    -2.1309078
C           3.2906216    -0.3090012    -0.8497627
H           2.4395594    -0.4196684    -1.5151035
C           3.3082820    -1.0179870     0.3637782
C           4.4306106    -0.8981394     1.1979049
H           4.4610843    -1.4504705     2.1355113
C           5.5020696    -0.0813509     0.8351995
H           6.3618339    -0.0042458     1.4960191
31
386_C15H15N_0-7-26-24 (-45,) energy =    -635.3450345
C           0.8579929    -1.4119630     0.8381403
C           0.2435365    -1.2386480     2.2204758
H           0.8739140    -1.4650983     3.0774946
H          -0.7973166    -1.5252266     2.3432630
C           0.5776176    -0.0262792     1.4043905
H          -0.2295753     0.5477134     0.9587385
H           1.4419411     0.5643262     1.6918521
N           2.2380017    -1.8557116     0.8087287
H           2.4822289    -2.4360549     1.6019617
C          -1.6272813    -2.9644798    -2.3558253
H          -2.2472349    -3.3571245    -3.1572602
C          -0.2843437    -3.3264490    -2.2577403
H           0.1518660    -4.0063485    -2.9853234
C           0.5112966    -2.8218618    -1.2276146
H           1.5548421    -3.1071993    -1.1508068
C          -0.0166148    -1.9418092    -0.2729772
C          -1.3711659    -1.5843279    -0.3834190
H          -1.8204315    -0.9050579     0.3364958
C          -2.1664614    -2.0895738    -1.4106213
H          -3.2115028    -1.7964537    -1.4717303
C           5.4556631     0.5750569    -0.4417412
H           6.2901360     1.1866951    -0.7721906
C           4.2415017     0.5989482    -1.1323946
H           4.1295489     1.2282118    -2.0119007
C           3.1687637    -0.1898330    -0.7223461
H           2.2378673    -0.1830959    -1.2806034
C           3.2852005    -1.0065052     0.4166282
C           4.5081599    -1.0275616     1.1083499
H           4.6138792    -1.6590124     1.9889027
C           5.5813213    -0.2496658     0.6773938
H           6.5175145    -0.2825981     1.2291410
31
386_C15H15N_0-7-26-24 (-30,) energy =    -635.3463009
C           0.7998520    -1.3818270     0.9177754
C           0.1260755    -1.2155431     2.2724256
H           0.7252003    -1.4245867     3.1557155
H          -0.9121579    -1.5253471     2.3526904
C           0.4646039     0.0012879     1.4653300
H          -0.3377279     0.5545074     0.9858698
H           1.3044359     0.6113654     1.7828280
N           2.1838291    -1.7864423     0.9589081
H           2.4290433    -2.3739351     1.7446042
C          -1.5107534    -3.0090532    -2.3686044
H          -2.0866632    -3.4205812    -3.1930748
C          -0.1660569    -3.3417663    -2.2093324
H           0.3156265    -4.0170234    -2.9120627
C           0.5731710    -2.8131338    -1.1497680
H           1.6182251    -3.0761223    -1.0274719
C          -0.0144261    -1.9376836    -0.2265291
C          -1.3697011    -1.6090435    -0.3988899
H          -1.8634898    -0.9339104     0.2952709
C          -2.1089698    -2.1387553    -1.4553026
H          -3.1562510    -1.8684067    -1.5641771
C           5.4118775     0.4937356    -0.5167716
H           6.2488551     1.0695411    -0.9006535
C           4.1360613     0.6433262    -1.0632948
H           3.9754548     1.3381095    -1.8840793
C           3.0554652    -0.0944153    -0.5820627
H           2.0747816     0.0179797    -1.0319967
C           3.2339162    -0.9978881     0.4814230
C           4.5215816    -1.1462698     1.0291735
H           4.6749150    -1.8436229     1.8510644
C           5.5942549    -0.4118977     0.5309294
H           6.5788965    -0.5446504     0.9724711
31
386_C15H15N_0-7-26-24 (-15,) energy =    -635.3467339
C           0.7601632    -1.3492520     0.9695043
C           0.0312599    -1.2031581     2.2981563
H           0.6049636    -1.3932172     3.2018381
H          -0.9987185    -1.5460677     2.3386842
C           0.3587572     0.0232718     1.5022276
H          -0.4435618     0.5484143     0.9921184
H           1.1667300     0.6595883     1.8490431
N           2.1485189    -1.6934577     1.0776841
H           2.3939650    -2.3737179     1.7823062
C          -1.3689474    -3.0605743    -2.3969053
H          -1.8992011    -3.4931711    -3.2409599
C          -0.0209434    -3.3477268    -2.1856898
H           0.5096736    -4.0077636    -2.8672528
C           0.6593692    -2.7916534    -1.1010381
H           1.7079227    -3.0192389    -0.9429627
C           0.0085739    -1.9339745    -0.2040353
C          -1.3492815    -1.6510400    -0.4289348
H          -1.8915239    -0.9908608     0.2430758
C          -2.0298275    -2.2081908    -1.5103877
H          -3.0806382    -1.9732948    -1.6597971
C           5.3925685     0.4022744    -0.6098871
H           6.2337160     0.9352204    -1.0431916
C           4.0884247     0.6719657    -1.0265042
H           3.9080078     1.4195590    -1.7952129
C           3.0001717    -0.0080723    -0.4805467
H           1.9962264     0.2015044    -0.8326437
C           3.2027749    -0.9809575     0.5160989
C           4.5209773    -1.2517808     0.9328475
H           4.6933470    -2.0020958     1.7026426
C           5.5966456    -0.5698000     0.3731393
H           6.6036622    -0.7983410     0.7135878
31
386_C15H15N_0-7-26-24 (0,) energy =    -635.3470709
C           0.7406107    -1.2801348     1.0368489
C          -0.0421039    -1.1658636     2.3396662
H           0.5071986    -1.3516523     3.2582336
H          -1.0640055    -1.5339743     2.3368367
C           0.2842583     0.0744210     1.5659700
H          -0.5102722     0.5836106     1.0282599
H           1.0621437     0.7262378     1.9502580
N           2.1326716    -1.5658186     1.2168706
H           2.3575461    -2.4316208     1.6871068
C          -1.2246520    -3.0468552    -2.4021257
H          -1.7144152    -3.4947815    -3.2624351
C           0.1230366    -3.2956794    -2.1464367
H           0.6945494    -3.9401781    -2.8094578
C           0.7514289    -2.7195909    -1.0409787
H           1.8020943    -2.9173306    -0.8582121
C           0.0486372    -1.8800095    -0.1659758
C          -1.3086636    -1.6360695    -0.4368759
H          -1.8903952    -0.9909764     0.2163418
C          -1.9375209    -2.2121579    -1.5393146
H          -2.9889360    -2.0064687    -1.7234924
C           5.3647101     0.3066204    -0.7399054
H           6.2036446     0.7869986    -1.2346339
C           4.0542713     0.6857916    -1.0320271
H           3.8659408     1.4657348    -1.7659044
C           2.9679451     0.0724647    -0.4080421
H           1.9570742     0.3669809    -0.6661881
C           3.1803492    -0.9391801     0.5464141
C           4.5050909    -1.3218175     0.8360335
H           4.6843545    -2.1020637     1.5736076
C           5.5776285    -0.7073648     0.1980783
H           6.5895926    -1.0223818     0.4408207
31
386_C15H15N_0-7-26-24 (15,) energy =    -635.3471841
C           0.7234308    -1.2395822     1.0910267
C          -0.1047403    -1.1661765     2.3679771
H           0.4206131    -1.3441178     3.3017817
H          -1.1133056    -1.5669557     2.3256625
C           0.2060336     0.0931020     1.6189297
H          -0.5864945     0.5848442     1.0624872
H           0.9503464     0.7623512     2.0379271
N           2.1203470    -1.4750651     1.3297134
H           2.3345091    -2.3885898     1.7107350
C          -1.0828128    -3.0678697    -2.4035189
H          -1.5340714    -3.5322425    -3.2760569
C           0.2552223    -3.3016258    -2.0903499
H           0.8579452    -3.9507687    -2.7203224
C           0.8349475    -2.7042567    -0.9695921
H           1.8799322    -2.8916463    -0.7483773
C           0.0919374    -1.8571616    -0.1355444
C          -1.2555704    -1.6295880    -0.4645604
H          -1.8682316    -0.9811265     0.1560310
C          -1.8358762    -2.2267630    -1.5821669
H          -2.8807142    -2.0324120    -1.8107597
C           5.3127578     0.2274455    -0.8458990
H           6.1428411     0.6665601    -1.3913438
C           4.0185765     0.7261240    -0.9971967
H           3.8338033     1.5604191    -1.6695767
C           2.9437498     0.1683873    -0.3050691
H           1.9441385     0.5609796    -0.4517625
C           3.1509506    -0.9138277     0.5685885
C           4.4582394    -1.4161261     0.7164085
H           4.6345884    -2.2504332     1.3931348
C           5.5204165    -0.8517168     0.0170279
H           6.5192112    -1.2602777     0.1497234
31
386_C15H15N_0-7-26-24 (30,) energy =    -635.3463471
C           0.7133193    -1.2023263     1.1239645
C          -0.1438060    -1.1577136     2.3827739
H           0.3677937    -1.3161847     3.3276363
H          -1.1357564    -1.5950785     2.3187104
C           0.1365266     0.1114376     1.6384053
H          -0.6608648     0.5762091     1.0660201
H           0.8464379     0.8052458     2.0764415
N           2.1152558    -1.3902346     1.4028352
H           2.3240970    -2.3183125     1.7553593
C          -0.9737139    -3.1143405    -2.3862707
H          -1.3965220    -3.5997675    -3.2615908
C           0.3588690    -3.3236284    -2.0357601
H           0.9864751    -3.9747971    -2.6387696
C           0.9023847    -2.6989403    -0.9116126
H           1.9445784    -2.8693801    -0.6661773
C           0.1280039    -1.8474537    -0.1107906
C          -1.2141641    -1.6458644    -0.4773681
H          -1.8517038    -0.9965358     0.1165164
C          -1.7582568    -2.2703132    -1.5980994
H          -2.7997171    -2.0946297    -1.8553819
C           5.2869006     0.1663335    -0.9154678
H           6.1126738     0.5704720    -1.4935410
C           4.0423116     0.7981729    -0.9160065
H           3.8940727     1.7038115    -1.4991436
C           2.9748281     0.2897418    -0.1773937
H           2.0142414     0.7916259    -0.1992552
C           3.1335377    -0.8849258     0.5785549
C           4.3900389    -1.5185867     0.5762311
H           4.5314981    -2.4238479     1.1644378
C           5.4500090    -0.9972588    -0.1607686
H           6.4091984    -1.5088845    -0.1456575
31
386_C15H15N_0-7-26-24 (45,) energy =    -635.3450332
C           0.8189911    -0.4753238     0.3790392
C           1.1490318    -0.5212196     1.8652457
H           2.1797123    -0.3204167     2.1407007
H           0.6649139    -1.2859848     2.4656063
C           0.3251826     0.6094120     1.3263512
H          -0.7396983     0.6397659     1.5400178
H           0.7936125     1.5880259     1.2487732
N           1.8796904    -0.0883645    -0.5306366
H           1.8431224     0.8924508    -0.7803723
C          -2.0570427    -3.2744953    -1.2579797
H          -2.7762620    -3.9754876    -1.6728694
C          -0.9902730    -2.8156744    -2.0297291
H          -0.8714932    -3.1577413    -3.0548183
C          -0.0668632    -1.9147893    -1.4963052
H           0.7599859    -1.5557200    -2.0993792
C          -0.1873305    -1.4536012    -0.1782564
C          -1.2664973    -1.9240311     0.5891758
H          -1.3972384    -1.5911646     1.6156461
C          -2.1898336    -2.8219954     0.0562778
H          -3.0154883    -3.1691677     0.6723439
C           5.8401788    -1.5274926    -0.2648675
H           6.8593761    -1.8993982    -0.2141909
C           4.7596259    -2.3887719    -0.0591930
H           4.9362768    -3.4415986     0.1467081
C           3.4485376    -1.9231617    -0.1325259
H           2.6156855    -2.6057848     0.0040178
C           3.1929828    -0.5642930    -0.3895143
C           4.2828108     0.2984104    -0.5959026
H           4.0990376     1.3517374    -0.8008379
C           5.5898833    -0.1821475    -0.5402644
H           6.4165415     0.5049314    -0.7031227
31
386_C15H15N_0-7-26-24 (60,) energy =    -635.3428831
C           0.8392166    -0.4972850     0.3127366
C           1.1991340    -0.5084413     1.7910665
H           2.2390762    -0.3212590     2.0405745
H           0.7130298    -1.2459127     2.4230308
C           0.3893489     0.6257989     1.2381859
H          -0.6698610     0.6873478     1.4726490
H           0.8789474     1.5904161     1.1234164
N           1.8903762    -0.1691744    -0.6402017
H           1.8530567     0.8080914    -0.9080576
C          -2.1440557    -3.2681227    -1.1762769
H          -2.8901752    -3.9622267    -1.5536003
C          -1.0908340    -2.8502024    -1.9887492
H          -1.0102304    -3.2173250    -3.0089230
C          -0.1326909    -1.9584795    -1.5030855
H           0.6840717    -1.6305281    -2.1367594
C          -0.2035813    -1.4653775    -0.1928907
C          -1.2706192    -1.8937325     0.6151999
H          -1.3644819    -1.5346904     1.6368545
C          -2.2283543    -2.7828073     0.1302467
H          -3.0427210    -3.0975854     0.7779661
C           5.8864055    -1.4650534    -0.1740643
H           6.9143773    -1.8016916    -0.0748494
C           4.8372182    -2.3886732    -0.1831751
H           5.0489336    -3.4517202    -0.0994744
C           3.5179334    -1.9661244    -0.3263369
H           2.7080888    -2.6887141    -0.3622384
C           3.2184190    -0.5963679    -0.4252699
C           4.2756387     0.3266652    -0.4172068
H           4.0571604     1.3896102    -0.5037400
C           5.5968936    -0.1062013    -0.3005391
H           6.4001894     0.6262926    -0.2977570
31
386_C15H15N_0-7-26-24 (75,) energy =    -635.3400998
C           0.8469441    -0.4958496     0.2558406
C           1.2180596    -0.4481317     1.7298553
H           2.2615421    -0.2619136     1.9651479
H           0.7284005    -1.1522239     2.3961572
C           0.4171609     0.6712407     1.1345599
H          -0.6393540     0.7559980     1.3742489
H           0.9163628     1.6246826     0.9751650
N           1.8931470    -0.2288707    -0.7289327
H           1.8721415     0.7471788    -1.0065647
C          -2.1870249    -3.2877222    -1.0860515
H          -2.9453155    -3.9875467    -1.4268204
C          -1.1450384    -2.9064374    -1.9304632
H          -1.0861823    -3.3074393    -2.9393671
C          -0.1706587    -2.0078849    -1.4919642
H           0.6361062    -1.7057286    -2.1505343
C          -0.2133246    -1.4711577    -0.1978068
C          -1.2705249    -1.8612664     0.6420874
H          -1.3445005    -1.4669884     1.6522996
C          -2.2443191    -2.7574244     0.2043214
H          -3.0499937    -3.0422827     0.8763457
C           5.8988488    -1.4541955    -0.1147937
H           6.9289387    -1.7718280     0.0203054
C           4.8972516    -2.3960842    -0.3676656
H           5.1492871    -3.4510892    -0.4394344
C           3.5780632    -1.9924002    -0.5610005
H           2.8040044    -2.7195914    -0.7876305
C           3.2283033    -0.6364317    -0.4609387
C           4.2385078     0.3043797    -0.2125962
H           3.9822147     1.3606187    -0.1529913
C           5.5641550    -0.1017920    -0.0479054
H           6.3330921     0.6428509     0.1417144
31
386_C15H15N_0-7-26-24 (90,) energy =    -635.3374589
C           1.0674770    -1.1911783     0.1498858
C           1.2360851    -0.9849984     1.6432939
H           2.2057609    -1.2206307     2.0722997
H           0.3967458    -1.1668794     2.3079982
C           1.1701222     0.2053828     0.7101379
H           0.2672839     0.8094971     0.7083034
H           2.0864508     0.7631270     0.5395225
N           2.1623675    -1.7091227    -0.6874212
H           2.0925325    -2.7257454    -0.6610191
C          -2.7071590    -2.4825985    -1.5148765
H          -3.6533936    -2.8022223    -1.9435408
C          -1.7988086    -1.7483780    -2.2835953
H          -2.0370373    -1.4956279    -3.3137203
C          -0.5866616    -1.3386110    -1.7336572
H           0.1276063    -0.7810732    -2.3321344
C          -0.2597428    -1.6469435    -0.4033863
C          -1.1700884    -2.3941710     0.3516290
H          -0.9264114    -2.6645152     1.3750203
C          -2.3879237    -2.8061044    -0.1972801
H          -3.0818677    -3.3853861     0.4064949
C           6.1636617    -0.5424177     0.0977449
H           7.1905454    -0.2414938     0.2859691
C           5.6448825    -1.6871197     0.7047064
H           6.2651890    -2.2798304     1.3721804
C           4.3226059    -2.0682622     0.4704307
H           3.9173576    -2.9549206     0.9532130
C           3.5098633    -1.3289575    -0.4029284
C           4.0415623    -0.1828292    -1.0118963
H           3.4152171     0.3770861    -1.7000186
C           5.3550621     0.2104119    -0.7573155
H           5.7533675     1.0986421    -1.2408963
31
386_C15H15N_0-7-26-24 (105,) energy =    -635.3398031
C           1.2437351    -1.8762056     0.5737444
C           1.0960473    -2.3761301     2.0048355
H           1.8760887    -3.0315352     2.3866364
H           0.0957287    -2.6279349     2.3466404
C           1.4473567    -0.9399453     1.7546900
H           0.6967355    -0.1742720     1.9271724
H           2.4655224    -0.6201282     1.9540097
N           2.4221318    -2.3288618    -0.1620118
H           2.7359805    -3.2248605     0.1965577
C          -2.3373195    -1.5053916    -1.8441591
H          -3.2327015    -1.4143643    -2.4531732
C          -1.1468945    -1.9720753    -2.4002051
H          -1.1082229    -2.2507016    -3.4504610
C           0.0031351    -2.0879054    -1.6171548
H           0.9270831    -2.4578766    -2.0475858
C          -0.0081893    -1.7371895    -0.2600195
C          -1.2154738    -1.2715491     0.2884940
H          -1.2704924    -0.9922865     1.3374864
C          -2.3644896    -1.1569966    -0.4923769
H          -3.2838455    -0.7924258    -0.0409840
C           5.6661167     0.3483885    -0.6587174
H           6.4946537     1.0381387    -0.7931702
C           5.7776583    -0.7247266     0.2259108
H           6.6932540    -0.8712976     0.7932897
C           4.7064295    -1.6013152     0.4075411
H           4.7916470    -2.4258116     1.1130733
C           3.5234288    -1.4462641    -0.3309175
C           3.4140896    -0.3593969    -1.2115931
H           2.4940809    -0.2269648    -1.7730655
C           4.4756034     0.5298568    -1.3677728
H           4.3768708     1.3636413    -2.0581941
31
386_C15H15N_0-7-26-24 (120,) energy =    -635.3425681
C           1.2248383    -1.8390064     0.6196155
C           1.0443290    -2.2912055     2.0628856
H           1.8176753    -2.9294172     2.4848585
H           0.0367281    -2.5360352     2.3877421
C           1.3963188    -0.8627071     1.7738093
H           0.6390511    -0.0950151     1.9030093
H           2.4087819    -0.5324350     1.9848515
N           2.4254821    -2.3071730    -0.0581927
H           2.7306916    -3.2018645     0.3081378
C          -2.2866235    -1.5637809    -1.9082418
H          -3.1646973    -1.4970541    -2.5449369
C          -1.0746590    -2.0258681    -2.4197598
H          -1.0012182    -2.3243190    -3.4626307
C           0.0529452    -2.1110827    -1.6010035
H           0.9942256    -2.4751984    -1.9979622
C          -0.0036752    -1.7338300    -0.2521862
C          -1.2315813    -1.2711342     0.2510558
H          -1.3202627    -0.9703501     1.2917879
C          -2.3581468    -1.1875128    -0.5655061
H          -3.2948210    -0.8252148    -0.1493225
C           5.6808643     0.3104468    -0.7129506
H           6.5165774     0.9820162    -0.8876363
C           5.8591641    -0.8623877     0.0216777
H           6.8356504    -1.1065456     0.4324402
C           4.7824727    -1.7173554     0.2588671
H           4.9243596    -2.6195566     0.8512416
C           3.5153389    -1.4363781    -0.2762180
C           3.3392521    -0.2499818    -1.0077815
H           2.3593418    -0.0205149    -1.4155646
C           4.4128131     0.6128258    -1.2168453
H           4.2590260     1.5243819    -1.7889247
31
386_C15H15N_0-7-26-24 (135,) energy =    -635.3447889
C           1.1999409    -1.8145672     0.6827361
C           0.9722306    -2.2381489     2.1276126
H           1.7342428    -2.8628957     2.5881663
H          -0.0445466    -2.4829682     2.4222108
C           1.3254034    -0.8133689     1.8231836
H           0.5581492    -0.0496007     1.9103564
H           2.3277621    -0.4710774     2.0610290
N           2.4256658    -2.2869940     0.0694650
H           2.7284597    -3.1808743     0.4364931
C          -2.2134044    -1.6034573    -1.9805908
H          -3.0667254    -1.5531680    -2.6514979
C          -0.9760624    -2.0510082    -2.4418649
H          -0.8575415    -2.3535918    -3.4793274
C           0.1196538    -2.1157140    -1.5792641
H           1.0804958    -2.4680381    -1.9384111
C           0.0043647    -1.7322746    -0.2360846
C          -1.2479529    -1.2827200     0.2161530
H          -1.3809180    -0.9765195     1.2505947
C          -2.3427523    -1.2198311    -0.6442700
H          -3.2999668    -0.8684090    -0.2674099
C           5.6625787     0.2774294    -0.8147011
H           6.4962547     0.9329799    -1.0490269
C           5.8843531    -0.9648505    -0.2177795
H           6.8958255    -1.2813025     0.0246304
C           4.8141832    -1.8010952     0.0953404
H           4.9962796    -2.7596273     0.5783017
C           3.4966186    -1.4255790    -0.2178006
C           3.2766194    -0.1711160    -0.8134272
H           2.2634580     0.1328415    -1.0572856
C           4.3520584     0.6665022    -1.1021562
H           4.1615546     1.6312428    -1.5658435
31
386_C15H15N_0-7-26-24 (150,) energy =    -635.3461909
C           1.1792140    -1.8064191     0.7776929
C           0.8879278    -2.2251827     2.2118892
H           1.6305195    -2.8445980     2.7095870
H          -0.1403589    -2.4742312     2.4587298
C           1.2458997    -0.7991798     1.9201704
H           0.4703092    -0.0405395     1.9710665
H           2.2349994    -0.4502993     2.2000219
N           2.4335835    -2.2718538     0.2375038
H           2.7391077    -3.1661127     0.5974699
C          -2.1047095    -1.6293068    -2.0458160
H          -2.9254601    -1.5878237    -2.7567468
C          -0.8450827    -2.0747248    -2.4447558
H          -0.6761647    -2.3838798    -3.4732121
C           0.2087386    -2.1282000    -1.5308670
H           1.1863746    -2.4783381    -1.8437994
C           0.0281708    -1.7352941    -0.1977631
C          -1.2455329    -1.2870902     0.1913392
H          -1.4282641    -0.9734570     1.2159077
C          -2.2987895    -1.2358913    -0.7202877
H          -3.2742266    -0.8860422    -0.3918549
C           5.6065826     0.2465354    -0.9419499
H           6.4261306     0.8883047    -1.2516994
C           5.8560058    -1.0398340    -0.4580996
H           6.8768528    -1.4063329    -0.3829838
C           4.8073837    -1.8609127    -0.0522594
H           5.0153911    -2.8570409     0.3347095
C           3.4743360    -1.4195406    -0.1418961
C           3.2259660    -0.1233978    -0.6287425
H           2.2042538     0.2317745    -0.7117578
C           4.2862381     0.6933326    -1.0190217
H           4.0718873     1.6910023    -1.3943845
31
386_C15H15N_0-7-26-24 (165,) energy =    -635.3467200
C           1.1625043    -1.7915707     0.8816945
C           0.8046081    -2.2170111     2.2995707
H           1.5287394    -2.8291778     2.8313596
H          -0.2324427    -2.4777276     2.4907568
C           1.1578270    -0.7863162     2.0289901
H           0.3708785    -0.0378087     2.0432705
H           2.1278662    -0.4267362     2.3574459
N           2.4486994    -2.2330642     0.4239716
H           2.7254192    -3.1680317     0.6863303
C          -1.9766125    -1.6655837    -2.1056062
H          -2.7606801    -1.6375519    -2.8573916
C          -0.6942137    -2.1012278    -2.4370370
H          -0.4703328    -2.4155955    -3.4533019
C           0.3124863    -2.1371776    -1.4707338
H           1.3078111    -2.4772015    -1.7353030
C           0.0610897    -1.7363536    -0.1516949
C          -1.2347010    -1.2976166     0.1690137
H          -1.4716812    -0.9780858     1.1805301
C          -2.2411784    -1.2640379    -0.7948519
H          -3.2352165    -0.9213687    -0.5188363
C           5.5460185     0.2078566    -1.0640720
H           6.3482409     0.8299713    -1.4497202
C           5.7928197    -1.1123004    -0.6777280
H           6.7948282    -1.5265364    -0.7591195
C           4.7681143    -1.9100811    -0.1788797
H           4.9757222    -2.9345322     0.1255133
C           3.4574396    -1.4070319    -0.0609619
C           3.2100342    -0.0790963    -0.4558401
H           2.2053193     0.3238574    -0.3920155
C           4.2495697     0.7103046    -0.9468870
H           4.0347969     1.7331297    -1.2469458
31
386_C15H15N_0-7-26-24 (180,) energy =    -635.3471009
C           1.1909971    -1.7397473     0.9715756
C           0.7655422    -2.1786534     2.3678662
H           1.4686191    -2.7938035     2.9221188
H          -0.2792631    -2.4407812     2.5074280
C           1.1276524    -0.7457385     2.1249096
H           0.3385745     0.0003142     2.1038088
H           2.0800365    -0.3885630     2.5030598
N           2.5110187    -2.1618755     0.6078117
H           2.6669063    -3.1597871     0.5657252
C          -1.8089942    -1.6407166    -2.1588788
H          -2.5587369    -1.6217973    -2.9451000
C          -0.5093974    -2.0652160    -2.4315211
H          -0.2367438    -2.3791382    -3.4358674
C           0.4535003    -2.0892465    -1.4210430
H           1.4621325    -2.4156409    -1.6502234
C           0.1411650    -1.6880393    -0.1149177
C          -1.1721872    -1.2604652     0.1451944
H          -1.4564385    -0.9412150     1.1444591
C          -2.1349057    -1.2377741    -0.8624096
H          -3.1431427    -0.9031530    -0.6317663
C           5.4779326     0.1890649    -1.2513097
H           6.2511796     0.7887518    -1.7222759
C           5.7127548    -1.1513674    -0.9326178
H           6.6765699    -1.6039135    -1.1527880
C           4.7256490    -1.9206385    -0.3254750
H           4.9252926    -2.9595176    -0.0689891
C           3.4639847    -1.3683247    -0.0284291
C           3.2277225    -0.0208734    -0.3563110
H           2.2590493     0.4220221    -0.1545008
C           4.2309768     0.7404768    -0.9560361
H           4.0248558     1.7793722    -1.2021285
