27
139_C14H12O_0-6-7-18 (-165,) energy =    -615.9447703
C          -0.2008313     0.8721931     0.1931798
H          -0.2328898     1.9328291     0.4209687
C          -1.3572987     0.1676273    -0.1269033
H          -2.3135176     0.6824031    -0.1650115
C          -1.2896447    -1.2038521    -0.3925756
H          -2.1937957    -1.7551819    -0.6370939
C           1.0409387     0.2184157     0.2309579
C           2.2506394     1.0090723     0.6267097
C          -0.0618021    -1.8664804    -0.3382315
H          -0.0095452    -2.9345236    -0.5312066
C           6.2578022    -0.4581528     0.0712093
H           7.2747147    -0.8205602    -0.0543709
C           5.7921689    -0.0902392     1.3338227
H           6.4400137    -0.1602091     2.2031390
C           1.1002880    -1.1580365    -0.0327285
H           2.0541135    -1.6747677     0.0185541
C           4.4901186     0.3833260     1.4684815
H           4.1172819     0.6985509     2.4385322
C           3.6318957     0.4631740     0.3617521
C           4.1009541     0.1136415    -0.9231160
C           3.2575803     0.2572737    -2.1730530
H           2.6344214     1.1567909    -2.1471976
H           2.5821929    -0.5946576    -2.3143983
H           3.8986661     0.3203877    -3.0580222
C           5.4218806    -0.3404317    -1.0385729
H           5.8029150    -0.5951912    -2.0249722
O           2.1257145     2.0753630     1.2163838
27
139_C14H12O_0-6-7-18 (-150,) energy =    -615.9441014
C          -0.1324221     0.8883189     0.1004036
H          -0.1309060     1.9587112     0.2812776
C          -1.2829090     0.2340293    -0.3322731
H          -2.1933761     0.7993736    -0.5118007
C          -1.2683615    -1.1501873    -0.5287020
H          -2.1687747    -1.6614231    -0.8589175
C           1.0510501     0.1675253     0.3183769
C           2.2615555     0.9028823     0.8089112
C          -0.0978989    -1.8767521    -0.2991334
H          -0.0881612    -2.9539927    -0.4413959
C           6.2873047    -0.3737631    -0.0115954
H           7.3100201    -0.6892020    -0.2009568
C           5.8833760    -0.0307169     1.2791047
H           6.5847622    -0.0740209     2.1076285
C           1.0621451    -1.2189737     0.1099448
H           1.9759393    -1.7806749     0.2832165
C           4.5721985     0.3817676     1.4928125
H           4.2417428     0.6776570     2.4837763
C           3.6425380     0.4255853     0.4412110
C           4.0486858     0.0991474    -0.8725277
C           3.1380651     0.2043148    -2.0784937
H           2.4813295     1.0778310    -2.0259924
H           2.4908978    -0.6739104    -2.1833310
H           3.7336024     0.2876420    -2.9931581
C           5.3807475    -0.2920520    -1.0674524
H           5.7132301    -0.5266095    -2.0761022
O           2.1288170     1.8815720     1.5336479
27
139_C14H12O_0-6-7-18 (-135,) energy =    -615.9422085
C          -0.0497064     0.8841678    -0.0060836
H          -0.0006393     1.9616003     0.1205477
C          -1.1880984     0.2782573    -0.5341181
H          -2.0323925     0.8883589    -0.8435835
C          -1.2463281    -1.1124761    -0.6592607
H          -2.1377218    -1.5848306    -1.0633609
C           1.0481473     0.1041547     0.3817673
C           2.2607871     0.7827626     0.9495638
C          -0.1586600    -1.8955306    -0.2656279
H          -0.2049471    -2.9774672    -0.3558576
C           6.3043970    -0.2563846    -0.0892233
H           7.3324795    -0.5135525    -0.3306628
C           5.9435372     0.0503945     1.2230818
H           6.6835931     0.0357688     2.0182890
C           0.9930693    -1.2883922     0.2355517
H           1.8481319    -1.8935142     0.5255984
C           4.6233512     0.3863586     1.5008269
H           4.3216769     0.6517802     2.5091704
C           3.6419444     0.3920854     0.4946190
C           4.0034824     0.0984830    -0.8414724
C           3.0424274     0.1551863    -2.0108639
H           2.3742079     1.0195820    -1.9576671
H           2.4055299    -0.7346637    -2.0633898
H           3.6003911     0.2203233    -2.9502816
C           5.3454021    -0.2156316    -1.0999382
H           5.6428218    -0.4236970    -2.1250952
O           2.1196482     1.6612708     1.7910130
27
139_C14H12O_0-6-7-18 (-120,) energy =    -615.9394909
C           0.0652785     0.8755726    -0.0701202
H           0.1896537     1.9509764     0.0205278
C          -1.0740901     0.3422679    -0.6714085
H          -1.8362116     1.0067533    -1.0695663
C          -1.2387459    -1.0425006    -0.7563220
H          -2.1307151    -1.4570085    -1.2182793
C           1.0558930     0.0256855     0.4377196
C           2.2797630     0.6178166     1.0832971
C          -0.2556473    -1.8936447    -0.2467799
H          -0.3829790    -2.9712512    -0.3063858
C           6.3372533    -0.1051447    -0.1561993
H           7.3698313    -0.2860557    -0.4434511
C           6.0106133     0.1655024     1.1729405
H           6.7820236     0.1983762     1.9371810
C           0.8976995    -1.3617046     0.3314663
H           1.6734674    -2.0229224     0.7094836
C           4.6826900     0.3989373     1.5074746
H           4.4016036     0.6285170     2.5300393
C           3.6583163     0.3457194     0.5440534
C           3.9850226     0.0845433    -0.8098196
C           2.9862579     0.0724722    -1.9485073
H           2.3082878     0.9299029    -1.9151768
H           2.3594876    -0.8254550    -1.9397593
H           3.5151734     0.1007930    -2.9062202
C           5.3351771    -0.1303710    -1.1240416
H           5.6031609    -0.3149618    -2.1615724
O           2.1355320     1.3424322     2.0600995
27
139_C14H12O_0-6-7-18 (-105,) energy =    -615.9369420
C           0.1747346     0.8579754    -0.1048843
H           0.4044928     1.9176060    -0.0305202
C          -0.9906767     0.4359627    -0.7450065
H          -1.6624746     1.1702964    -1.1814367
C          -1.2968110    -0.9246823    -0.8198540
H          -2.2069121    -1.2522053    -1.3149425
C           1.0479317    -0.0804877     0.4577257
C           2.2860969     0.3850239     1.1850125
C          -0.4322126    -1.8628909    -0.2526616
H          -0.6692292    -2.9224182    -0.3008800
C           6.3564563     0.1394233    -0.2024048
H           7.3931024     0.0793074    -0.5237828
C           6.0426026     0.3705013     1.1371733
H           6.8280559     0.4927228     1.8776735
C           0.7419476    -1.4437919     0.3753782
H           1.4186641    -2.1764235     0.8082417
C           4.7085354     0.4436404     1.5133655
H           4.4330040     0.6308335     2.5455523
C           3.6626905     0.2798922     0.5839381
C           3.9764246     0.0503628    -0.7811285
C           2.9639845    -0.1039676    -1.8970039
H           2.2610381     0.7329382    -1.9387529
H           2.3629366    -1.0122681    -1.7913099
H           3.4811291    -0.1547674    -2.8600292
C           5.3331023    -0.0092426    -1.1354393
H           5.5879724    -0.1745112    -2.1793122
O           2.1374566     0.8697863     2.2999507
27
139_C14H12O_0-6-7-18 (-90,) energy =    -615.9361813
C           0.3415834     0.8413184    -0.0787322
H           0.7106695     1.8592904     0.0182198
C          -0.8784222     0.5983127    -0.7119556
H          -1.4543673     1.4300247    -1.1089859
C          -1.3605938    -0.7066851    -0.8287774
H          -2.3100422    -0.8951460    -1.3223969
C           1.0918117    -0.2221758     0.4360595
C           2.3513314     0.0498759     1.2268993
C          -0.6233994    -1.7679950    -0.2995858
H          -0.9999354    -2.7846605    -0.3751137
C           6.3719819     0.4463071    -0.2680158
H           7.3957621     0.5535972    -0.6171664
C           6.0570062     0.6506913     1.0757201
H           6.8283789     0.9204710     1.7915691
C           0.5947277    -1.5270116     0.3370260
H           1.1597509    -2.3527538     0.7619108
C           4.7401209     0.5046530     1.4880783
H           4.4635485     0.6537494     2.5260496
C           3.7110520     0.1592701     0.5899185
C           4.0265428    -0.0503771    -0.7786104
C           3.0363146    -0.4330277    -1.8589674
H           2.2586102     0.3238002    -1.9980157
H           2.5209307    -1.3722593    -1.6382022
H           3.5597957    -0.5543808    -2.8121828
C           5.3666366     0.1010252    -1.1677572
H           5.6230040    -0.0595714    -2.2119426
O           2.2249894     0.1805709     2.4379802
27
139_C14H12O_0-6-7-18 (-75,) energy =    -615.9377491
C           0.5378001     0.8056477    -0.0967546
H           1.0340024     1.7691265    -0.0084450
C          -0.7111052     0.7173478    -0.7142178
H          -1.1871317     1.6154332    -1.0987553
C          -1.3486040    -0.5189682    -0.8311191
H          -2.3179912    -0.5883910    -1.3171266
C           1.1589911    -0.3439651     0.4061272
C           2.4277917    -0.2317341     1.2163152
C          -0.7426722    -1.6646716    -0.3098829
H          -1.2424003    -2.6268087    -0.3844795
C           6.3484462     0.7049489    -0.2916338
H           7.3457098     0.9507989    -0.6473426
C           6.0163272     0.8718355     1.0532471
H           6.7476907     1.2500216     1.7619731
C           0.4956778    -1.5749394     0.3247222
H           0.9530740    -2.4590361     0.7604899
C           4.7350464     0.5449297     1.4764854
H           4.4503145     0.6525933     2.5177061
C           3.7589565     0.0646171     0.5826212
C           4.0929454    -0.1140824    -0.7841797
C           3.1583240    -0.6660249    -1.8407004
H           2.3436301     0.0260218    -2.0765148
H           2.6915223    -1.6061416    -1.5331894
H           3.7143721    -0.8546906    -2.7641971
C           5.3980683     0.2118692    -1.1829441
H           5.6725388     0.0679904    -2.2250860
O           2.3440476    -0.4000157     2.4262285
27
139_C14H12O_0-6-7-18 (-60,) energy =    -615.9403862
C           0.6782302     0.7326070    -0.1314088
H           1.2806453     1.6367420    -0.0895806
C          -0.5863599     0.7609178    -0.7212395
H          -0.9713969     1.6911554    -1.1302898
C          -1.3557228    -0.4025355    -0.7810092
H          -2.3363361    -0.3830596    -1.2489074
C           1.1796772    -0.4597386     0.4067033
C           2.4637486    -0.4648095     1.1911748
C          -0.8684876    -1.5894285    -0.2268900
H          -1.4716393    -2.4927748    -0.2594735
C           6.2657058     0.8873447    -0.2994233
H           7.2324251     1.2360943    -0.6533598
C           5.9252427     0.9993161     1.0491578
H           6.6200022     1.4361298     1.7609975
C           0.3821596    -1.6119616     0.3874118
H           0.7509468    -2.5194659     0.8566328
C           4.6853086     0.5378516     1.4730914
H           4.4003765     0.5955056     2.5185986
C           3.7582130    -0.0158857     0.5714633
C           4.1026088    -0.1448548    -0.7963586
C           3.2183747    -0.7878731    -1.8449573
H           2.3985940    -0.1301874    -2.1533271
H           2.7611588    -1.7162984    -1.4913829
H           3.8092454    -1.0231533    -2.7357297
C           5.3671888     0.3119225    -1.1957677
H           5.6529797     0.2032366    -2.2393064
O           2.4379499    -0.8480599     2.3539887
27
139_C14H12O_0-6-7-18 (-45,) energy =    -615.9428789
C           0.8067553     0.6678086    -0.2035990
H           1.4956544     1.5082565    -0.2260425
C          -0.4668924     0.7903149    -0.7598580
H          -0.7725326     1.7308448    -1.2102024
C          -1.3470011    -0.2933314    -0.7339120
H          -2.3352516    -0.2012966    -1.1765835
C           1.2050461    -0.5376445     0.3909572
C           2.5099284    -0.6453213     1.1243107
C          -0.9605477    -1.4932001    -0.1291935
H          -1.6488338    -2.3335301    -0.0991745
C           6.1993744     1.0479241    -0.2983132
H           7.1378594     1.4788121    -0.6373607
C           5.8393973     1.1128839     1.0481568
H           6.4909304     1.5938185     1.7723523
C           0.3000427    -1.6070338     0.4518468
H           0.5996449    -2.5195478     0.9583455
C           4.6382072     0.5437162     1.4560148
H           4.3455636     0.5601356     2.5011472
C           3.7682325    -0.0658374     0.5360523
C           4.1339222    -0.1505071    -0.8279541
C           3.3067426    -0.8595855    -1.8805120
H           2.4601342    -0.2519435    -2.2181869
H           2.8923788    -1.8039865    -1.5149997
H           3.9258075    -1.0819418    -2.7553596
C           5.3602037     0.4111826    -1.2111806
H           5.6645909     0.3363105    -2.2525520
O           2.5417925    -1.1984995     2.2167060
27
139_C14H12O_0-6-7-18 (-30,) energy =    -615.9444099
C           0.8881402     0.5928677    -0.2912557
H           1.6425946     1.3680478    -0.3921648
C          -0.3907214     0.7889199    -0.8129053
H          -0.6315270     1.7187171    -1.3210670
C          -1.3596413    -0.2076406    -0.6789644
H          -2.3532343    -0.0586088    -1.0933901
C           1.2033328    -0.5981747     0.3786316
C           2.5310157    -0.8020238     1.0435165
C          -1.0545182    -1.3942327    -0.0047959
H          -1.8104772    -2.1669913     0.1055135
C           6.1297380     1.1606655    -0.2625457
H           7.0447924     1.6574284    -0.5743296
C           5.7419885     1.1742923     1.0777158
H           6.3490848     1.6795467     1.8236525
C           0.2143475    -1.5810245     0.5362594
H           0.4613976    -2.4825890     1.0879496
C           4.5727709     0.5205518     1.4531608
H           4.2642196     0.4966380     2.4938819
C           3.7620335    -0.1213924     0.5034822
C           4.1578768    -0.1578461    -0.8524163
C           3.3898021    -0.9029752    -1.9247542
H           2.5541326    -0.3126320    -2.3179136
H           2.9685266    -1.8423721    -1.5544784
H           4.0503522    -1.1405569    -2.7647230
C           5.3509040     0.4889690    -1.2037155
H           5.6788809     0.4522274    -2.2400781
O           2.6113461    -1.4941853     2.0510725
27
139_C14H12O_0-6-7-18 (-15,) energy =    -615.9447477
C           0.9395077     0.5187262    -0.3705236
H           1.7392092     1.2281977    -0.5609946
C          -0.3490616     0.7783554    -0.8372915
H          -0.5484826     1.6872226    -1.3984195
C          -1.3804973    -0.1269999    -0.5804670
H          -2.3830978     0.0732341    -0.9491884
C           1.2040805    -0.6457985     0.3655115
C           2.5576967    -0.9440866     0.9345552
C          -1.1252085    -1.2886611     0.1554996
H          -1.9288400    -1.9913207     0.3586030
C           6.0739747     1.2515920    -0.2210426
H           6.9679432     1.8045906    -0.4971163
C           5.6440095     1.2253138     1.1059335
H           6.1979451     1.7547182     1.8761281
C           0.1569245    -1.5421274     0.6327527
H           0.3746930    -2.4291449     1.2188875
C           4.5033421     0.4998982     1.4390857
H           4.1671489     0.4471029     2.4704659
C           3.7647377    -0.1746881     0.4561418
C           4.2037726    -0.1718934    -0.8851080
C           3.4995856    -0.9477912    -1.9788225
H           2.6454125    -0.3965316    -2.3897220
H           3.1163795    -1.9081390    -1.6196990
H           4.1886019    -1.1510093    -2.8047485
C           5.3659215     0.5477518    -1.1944598
H           5.7264400     0.5434598    -2.2206844
O           2.6846524    -1.7690827     1.8308119
27
139_C14H12O_0-6-7-18 (0,) energy =    -615.9460824
C           0.7606525     0.7120838    -0.0130151
H           1.5756030     1.4069594    -0.1821728
C          -0.5543180     1.1786649    -0.0197466
H          -0.7503511     2.2358700    -0.1765095
C          -1.6138613     0.2907562     0.1702590
H          -2.6373249     0.6565331     0.1646380
C           1.0281809    -0.6523381     0.1811915
C           2.4132784    -1.2317389     0.2141987
C          -1.3573714    -1.0705466     0.3646126
H          -2.1810071    -1.7641381     0.5109330
C           5.9105411     1.2500462    -0.1585896
H           6.8043052     1.8621246    -0.2463662
C           4.9631108     1.5263782     0.8249380
H           5.1098682     2.3487979     1.5194963
C          -0.0474879    -1.5368687     0.3729229
H           0.1752957    -2.5874353     0.5270351
C           3.8168843     0.7365188     0.9088013
H           3.0774618     0.9429033     1.6778271
C           3.6148169    -0.3405568     0.0338127
C           4.5837083    -0.6421100    -0.9498920
C           4.4330721    -1.8085694    -1.9001149
H           3.4463272    -1.8248072    -2.3762873
H           4.5405654    -2.7607845    -1.3718718
H           5.1893167    -1.7605383    -2.6896617
C           5.7126006     0.1806551    -1.0335637
H           6.4566984    -0.0289559    -1.7984278
O           2.5702245    -2.4410712     0.3380119
27
139_C14H12O_0-6-7-18 (15,) energy =    -615.9472717
C           0.7222670     0.7162726    -0.1611769
H           1.5291320     1.3741209    -0.4656818
C          -0.5788920     1.2131528    -0.0760158
H          -0.7726936     2.2581758    -0.3019971
C          -1.6277850     0.3705149     0.2943597
H          -2.6398989     0.7603217     0.3648207
C           0.9849768    -0.6345511     0.1158781
C           2.3512845    -1.2504745     0.0119475
C          -1.3758867    -0.9774946     0.5695985
H          -2.1917648    -1.6360626     0.8550194
C           5.8916551     1.1943643    -0.0703297
H           6.7955270     1.7978116    -0.0831207
C           4.8747447     1.4693155     0.8419896
H           4.9761496     2.2818262     1.5559777
C          -0.0810763    -1.4763512     0.4756215
H           0.1351214    -2.5206713     0.6754862
C           3.7182693     0.6916575     0.8273495
H           2.9238179     0.8982422     1.5384885
C           3.5713574    -0.3753720    -0.0728168
C           4.6113553    -0.6756546    -0.9842343
C           4.5345420    -1.8265769    -1.9616045
H           3.5654104    -1.8742605    -2.4684174
H           4.6614998    -2.7849235    -1.4488851
H           5.3156406    -1.7326546    -2.7226906
C           5.7500893     0.1380762    -0.9713310
H           6.5475907    -0.0687114    -1.6811152
O           2.4675227    -2.4709367    -0.0199631
27
139_C14H12O_0-6-7-18 (30,) energy =    -615.9475299
C           0.6700767     0.7066470    -0.2990612
H           1.4458455     1.3342567    -0.7262112
C          -0.6199976     1.2126854    -0.1355200
H          -0.8406132     2.2347551    -0.4312622
C          -1.6242133     0.4072179     0.4037054
H          -2.6266265     0.8050397     0.5384247
C           0.9636399    -0.6163075     0.0653607
C           2.3084865    -1.2464593    -0.1661411
C          -1.3413812    -0.9141247     0.7639432
H          -2.1233998    -1.5441431     1.1791138
C           5.8767731     1.1495767     0.0233712
H           6.7860210     1.7424088     0.0798936
C           4.8035529     1.4248100     0.8687196
H           4.8650417     2.2271207     1.5985750
C          -0.0602009    -1.4259324     0.5827949
H           0.1724995    -2.4557975     0.8338169
C           3.6431631     0.6610654     0.7653972
H           2.8047666     0.8690433     1.4228460
C           3.5444228    -0.3944967    -0.1562130
C           4.6409290    -0.6928180    -1.0026342
C           4.6230169    -1.8229447    -2.0062354
H           3.6912067    -1.8519958    -2.5793181
H           4.7039769    -2.7931335    -1.5069216
H           5.4576735    -1.7202174    -2.7071911
C           5.7846091     0.1076755    -0.9003081
H           6.6256534    -0.0977853    -1.5582725
O           2.3827141    -2.4576951    -0.3446854
27
139_C14H12O_0-6-7-18 (45,) energy =    -615.9465806
C           0.5942202     0.7206556    -0.4297668
H           1.3185065     1.3249252    -0.9684615
C          -0.6866502     1.2188436    -0.1881046
H          -0.9566689     2.2100038    -0.5423859
C          -1.6185470     0.4443651     0.5049288
H          -2.6127952     0.8365897     0.7018376
C           0.9493419    -0.5627410     0.0105666
C           2.2707787    -1.1919725    -0.3411234
C          -1.2748500    -0.8397351     0.9379719
H          -2.0012055    -1.4472759     1.4710595
C           5.8754986     1.1080457     0.1262351
H           6.7919830     1.6785906     0.2526286
C           4.7531356     1.3989761     0.8995099
H           4.7818284     2.1921321     1.6412431
C          -0.0055770    -1.3476570     0.6739761
H           0.2641864    -2.3556607     0.9733391
C           3.5869559     0.6625667     0.7082473
H           2.7107430     0.8836644     1.3088367
C           3.5264065    -0.3813183    -0.2310839
C           4.6715799    -0.6918923    -1.0089045
C           4.7017116    -1.8021544    -2.0334989
H           3.8195335    -1.7911528    -2.6804209
H           4.7095502    -2.7841787    -1.5510309
H           5.5954044    -1.7128642    -2.6597423
C           5.8232966     0.0798578    -0.8155231
H           6.7025725    -0.1366056    -1.4175245
O           2.2972949    -2.3732849    -0.6691037
27
139_C14H12O_0-6-7-18 (60,) energy =    -615.9446227
C           0.4940416     0.7162053    -0.5623185
H           1.1425959     1.3007291    -1.2096004
C          -0.7778318     1.1901145    -0.2375842
H          -1.1194948     2.1401054    -0.6397216
C          -1.6089282     0.4439605     0.5997241
H          -2.5957232     0.8172801     0.8602670
C           0.9407765    -0.5131891    -0.0587841
C           2.2421179    -1.1258090    -0.5164772
C          -1.1738333    -0.7882376     1.0951133
H          -1.8220935    -1.3756959     1.7397643
C           5.8853620     1.0326119     0.2310622
H           6.8095276     1.5702320     0.4269275
C           4.7227707     1.3536283     0.9295076
H           4.7261576     2.1388866     1.6800782
C           0.0851733    -1.2748039     0.7491216
H           0.4162417    -2.2485127     1.0979383
C           3.5502010     0.6570275     0.6516730
H           2.6425108     0.9019243     1.1927921
C           3.5183064    -0.3747556    -0.3032617
C           4.7033006    -0.7118458    -1.0100291
C           4.7704762    -1.8044378    -2.0509912
H           3.9626569    -1.7242871    -2.7843714
H           4.6635640    -2.7936353    -1.5958622
H           5.7291982    -1.7621786    -2.5782830
C           5.8639446     0.0171951    -0.7254956
H           6.7750023    -0.2221957    -1.2685865
O           2.2204854    -2.2530891    -0.9969842
27
139_C14H12O_0-6-7-18 (75,) energy =    -615.9424397
C           0.3587770     0.6965912    -0.7060573
H           0.9056559     1.2554163    -1.4614020
C          -0.8979172     1.1361955    -0.2868880
H          -1.3287683     2.0332647    -0.7235549
C          -1.5993562     0.4243931     0.6876347
H          -2.5750228     0.7702821     1.0182559
C           0.9212118    -0.4624699    -0.1564962
C           2.2117256    -1.0371458    -0.7030686
C          -1.0471436    -0.7377513     1.2313667
H          -1.5931100    -1.2999271     1.9842978
C           5.8807583     0.9448648     0.3407613
H           6.8099551     1.4407985     0.6094180
C           4.6848776     1.3064083     0.9588019
H           4.6660302     2.0840990     1.7169269
C           0.1994011    -1.1891340     0.7990360
H           0.6175234    -2.1089059     1.1986497
C           3.5094018     0.6590871     0.5911709
H           2.5757996     0.9355479     1.0690278
C           3.5027306    -0.3586790    -0.3799826
C           4.7209138    -0.7330898    -1.0096890
C           4.8216420    -1.8093949    -2.0641795
H           4.1177248    -1.6446741    -2.8853308
H           4.5756246    -2.7942634    -1.6560652
H           5.8375863    -1.8405180    -2.4715510
C           5.8867552    -0.0580317    -0.6289138
H           6.8243737    -0.3297167    -1.1076697
O           2.1531926    -2.0740827    -1.3521648
27
139_C14H12O_0-6-7-18 (90,) energy =    -615.9412372
C           0.2000021     0.6503908    -0.8378695
H           0.6244003     1.1617864    -1.6981112
C          -1.0332544     1.0540782    -0.3241841
H          -1.5648228     1.8815066    -0.7867012
C          -1.5834224     0.3960763     0.7774380
H          -2.5435182     0.7115406     1.1767871
C           0.8923189    -0.4164219    -0.2524699
C           2.1831817    -0.9227888    -0.8693224
C          -0.8974221    -0.6700238     1.3622825
H          -1.3226661    -1.1886560     2.2174512
C           5.8517989     0.8718977     0.4716275
H           6.7793156     1.3251694     0.8118484
C           4.6321854     1.2729935     1.0144685
H           4.5922132     2.0405717     1.7820183
C           0.3345612    -1.0772413     0.8484702
H           0.8626006    -1.9133360     1.2996710
C           3.4602773     0.6768976     0.5602709
H           2.5084030     0.9847334     0.9789315
C           3.4775965    -0.3211326    -0.4315272
C           4.7201263    -0.7329755    -0.9874402
C           4.8518316    -1.7927425    -2.0548330
H           4.2811746    -1.5376337    -2.9527052
H           4.4576688    -2.7564640    -1.7186719
H           5.9045177    -1.9182926    -2.3290705
C           5.8837435    -0.1155111    -0.5131313
H           6.8403609    -0.4203698    -0.9303428
O           2.1126599    -1.8175900    -1.7019291
27
139_C14H12O_0-6-7-18 (105,) energy =    -615.9419385
C           0.0609897     0.5896357    -0.9565382
H           0.3673953     1.0406143    -1.8964918
C          -1.1480434     0.9550932    -0.3638189
H          -1.7776239     1.7024020    -0.8394465
C          -1.5502655     0.3598389     0.8336776
H          -2.4947270     0.6410567     1.2916641
C           0.8810132    -0.3698810    -0.3506780
C           2.1707716    -0.7849351    -1.0289693
C          -0.7351315    -0.5967262     1.4417360
H          -1.0443525    -1.0638823     2.3729949
C           5.8499301     0.7593763     0.5737364
H           6.7805311     1.1531318     0.9743162
C           4.6252932     1.2268041     1.0476322
H           4.5844562     1.9902074     1.8192980
C           0.4822689    -0.9519436     0.8588091
H           1.1212509    -1.6879070     1.3402796
C           3.4495189     0.7013646     0.5212279
H           2.4941777     1.0616321     0.8864703
C           3.4683420    -0.2819915    -0.4849218
C           4.7156848    -0.7585991    -0.9735880
C           4.8483784    -1.8114607    -2.0480107
H           4.4444642    -1.4632607    -3.0032865
H           4.2879886    -2.7185327    -1.8028358
H           5.9024098    -2.0744394    -2.1857330
C           5.8829233    -0.2198052    -0.4191484
H           6.8433621    -0.5801592    -0.7794755
O           2.1006421    -1.4850745    -2.0314299
27
139_C14H12O_0-6-7-18 (120,) energy =    -615.9439706
C          -0.0657477     0.5146999    -1.0375647
H           0.1474112     0.9013527    -2.0299478
C          -1.2704594     0.8155112    -0.4034846
H          -1.9950113     1.4579017    -0.8967329
C          -1.5476592     0.2882063     0.8601248
H          -2.4903511     0.5164983     1.3501948
C           0.8789579    -0.3046903    -0.4059207
C           2.1666224    -0.6190842    -1.1284069
C          -0.6108937    -0.5309086     1.4936334
H          -0.8239577    -0.9455344     2.4753089
C           5.8667542     0.6544703     0.6574683
H           6.8037735     0.9825135     1.1000563
C           4.6566429     1.1947540     1.0889419
H           4.6344041     1.9522535     1.8672066
C           0.6062335    -0.8115834     0.8715761
H           1.3425680    -1.4343564     1.3728664
C           3.4704525     0.7493991     0.5129957
H           2.5264555     1.1676676     0.8446985
C           3.4678877    -0.2190582    -0.5069142
C           4.7000267    -0.7653027    -0.9563840
C           4.8037452    -1.8076617    -2.0448027
H           4.5378443    -1.3910714    -3.0209161
H           4.1177785    -2.6438483    -1.8805653
H           5.8261756    -2.1963597    -2.0954814
C           5.8766030    -0.3136326    -0.3469098
H           6.8252727    -0.7329773    -0.6731359
O           2.1056621    -1.1337271    -2.2391453
27
139_C14H12O_0-6-7-18 (135,) energy =    -615.9460772
C          -0.1658656     0.4380920    -1.0933497
H          -0.0169289     0.7676695    -2.1170581
C          -1.3819360     0.6450301    -0.4460527
H          -2.1882230     1.1605978    -0.9607855
C          -1.5662400     0.1850349     0.8607399
H          -2.5179693     0.3392065     1.3622943
C           0.8859690    -0.2126938    -0.4327860
C           2.1733609    -0.4311275    -1.1819847
C          -0.5268044    -0.4724392     1.5217620
H          -0.6697557    -0.8375041     2.5352401
C           5.8983544     0.5528954     0.7323449
H           6.8430047     0.8096503     1.2047450
C           4.7181961     1.1757908     1.1341400
H           4.7281172     1.9287587     1.9170959
C           0.7006620    -0.6562831     0.8844388
H           1.5129793    -1.1573996     1.4033460
C           3.5192128     0.8188388     0.5228492
H           2.5981928     1.3020352     0.8313149
C           3.4783546    -0.1387880    -0.5054441
C           4.6799535    -0.7640998    -0.9287301
C           4.7351412    -1.7963380    -2.0308569
H           4.5767249    -1.3363700    -3.0109211
H           3.9548430    -2.5557560    -1.9250555
H           5.7101962    -2.2944797    -2.0315514
C           5.8679639    -0.4059180    -0.2807515
H           6.7930573    -0.8902757    -0.5840284
O           2.1244436    -0.7897392    -2.3536482
27
139_C14H12O_0-6-7-18 (150,) energy =    -615.9473904
C          -0.2360614     0.3582880    -1.1357574
H          -0.1303267     0.6326766    -2.1805117
C          -1.4643185     0.4566476    -0.4884993
H          -2.3319959     0.8300112    -1.0256981
C          -1.5827245     0.0690570     0.8497472
H          -2.5432116     0.1389640     1.3535397
C           0.8954012    -0.1062416    -0.4471924
C           2.1836090    -0.2297321    -1.2119330
C          -0.4671869    -0.4114593     1.5377244
H          -0.5592602    -0.7250677     2.5740380
C           5.9370688     0.4385929     0.7831687
H           6.8907635     0.6159856     1.2734861
C           4.8033798     1.1510419     1.1692399
H           4.8594334     1.8969303     1.9570736
C           0.7695610    -0.4898668     0.8965173
H           1.6347088    -0.8661054     1.4337281
C           3.5900089     0.8930333     0.5357096
H           2.7049556     1.4470791     0.8318818
C           3.4925595    -0.0520133    -0.4994396
C           4.6471882    -0.7641149    -0.9101777
C           4.6350982    -1.7839851    -2.0256575
H           4.5506724    -1.2976386    -3.0021317
H           3.7837403    -2.4673921    -1.9517295
H           5.5567497    -2.3746650    -2.0082040
C           5.8481077    -0.5077512    -0.2383982
H           6.7370249    -1.0618037    -0.5304154
O           2.1469292    -0.4475376    -2.4184610
27
139_C14H12O_0-6-7-18 (165,) energy =    -615.9474232
C          -0.2721850     0.2561427    -1.1839194
H          -0.1872709     0.4722516    -2.2438422
C          -1.5103590     0.2337518    -0.5506751
H          -2.4130745     0.4466170    -1.1169316
C          -1.5936036    -0.0695765     0.8121888
H          -2.5612198    -0.0921382     1.3066456
C           0.9048724    -0.0022217    -0.4615564
C           2.2005606    -0.0208407    -1.2224243
C          -0.4335755    -0.3520662     1.5346069
H          -0.4957177    -0.6043532     2.5896994
C           5.9656140     0.3368737     0.8291037
H           6.9231457     0.4365032     1.3335891
C           4.8872857     1.1363816     1.2032604
H           4.9924461     1.8729718     1.9948393
C           0.8102178    -0.3174988     0.9030301
H           1.7057881    -0.5546895     1.4674022
C           3.6649038     0.9784340     0.5529719
H           2.8210852     1.6002079     0.8371455
C           3.5089484     0.0468267    -0.4856053
C           4.6077866    -0.7502462    -0.8870520
C           4.5214018    -1.7546352    -2.0136160
H           4.4675078    -1.2521236    -2.9838904
H           3.6256100    -2.3798815    -1.9408576
H           5.3985392    -2.4094553    -2.0074428
C           5.8166380    -0.5952705    -0.1988465
H           6.6628071    -1.2163136    -0.4832186
O           2.1843137    -0.1011694    -2.4460912
27
139_C14H12O_0-6-7-18 (180,) energy =    -615.9463059
C          -0.2567508     0.1472254    -1.2273588
H          -0.1705202     0.3069640    -2.2970010
C          -1.4976610    -0.0010098    -0.6179299
H          -2.4042732     0.0448259    -1.2152626
C          -1.5779469    -0.2160998     0.7618720
H          -2.5473656    -0.3343871     1.2388904
C           0.9248839     0.0986962    -0.4673197
C           2.2274625     0.1989798    -1.2090967
C          -0.4110175    -0.2912662     1.5231897
H          -0.4684519    -0.4749812     2.5925958
C           6.0020632     0.2280765     0.8569236
H           6.9635286     0.2438125     1.3634066
C           4.9954104     1.1155437     1.2324675
H           5.1620574     1.8375613     2.0269484
C           0.8349679    -0.1421622     0.9130256
H           1.7361212    -0.2298134     1.5095644
C           3.7647803     1.0663752     0.5790951
H           2.9773559     1.7595151     0.8622234
C           3.5334422     0.1543210    -0.4612915
C           4.5586127    -0.7314389    -0.8643722
C           4.3803017    -1.7145979    -1.9991367
H           4.3805812    -1.2010937    -2.9656685
H           3.4284890    -2.2521368    -1.9330172
H           5.1889797    -2.4521148    -1.9971864
C           5.7759312    -0.6836760    -0.1752811
H           6.5663311    -1.3734136    -0.4619705
O           2.2315749     0.2675388    -2.4330617
