27
139_C14H12O_6-7-18-16 (-165,) energy =    -615.9398086
C          -0.0208717     0.9439163     0.0717817
H           0.0955550     1.9974567     0.3063837
C          -1.1990073     0.4649334    -0.4978228
H          -2.0044635     1.1551823    -0.7335513
C          -1.3518874    -0.9015685    -0.7476260
H          -2.2761041    -1.2759305    -1.1796946
C           1.0348349     0.0657426     0.3534871
C           2.2487988     0.6001347     1.0584546
C          -0.3201263    -1.7877113    -0.4305923
H          -0.4443797    -2.8535781    -0.6020251
C           6.3938402    -0.1583113     0.1442427
H           7.4468951    -0.3328826    -0.0609344
C           5.9865673     0.3499847     1.3783614
H           6.7154059     0.5848565     2.1489761
C           0.8721645    -1.3047008     0.1083175
H           1.6743290    -1.9939324     0.3593736
C           4.6344398     0.5635498     1.6061840
H           4.2905385     0.9707423     2.5507207
C           3.6556318     0.2458365     0.6436640
C           4.0709161    -0.2055044    -0.6364331
C           3.1648598    -0.4106475    -1.8348763
H           2.3855725     0.3518073    -1.9051021
H           2.6569127    -1.3805046    -1.8179848
H           3.7602126    -0.3690104    -2.7524631
C           5.4448283    -0.4101702    -0.8424393
H           5.7749353    -0.7550928    -1.8194442
O           2.0704185     1.3837249     1.9852818
27
139_C14H12O_6-7-18-16 (-150,) energy =    -615.9428763
C          -0.0933314     0.9451670     0.0734384
H          -0.0401506     2.0102930     0.2754388
C          -1.2657500     0.3623874    -0.4008625
H          -2.1383225     0.9805844    -0.5937884
C          -1.3248511    -1.0180771    -0.6138462
H          -2.2434399    -1.4740292    -0.9736140
C           1.0459441     0.1591612     0.3019044
C           2.2619806     0.8101836     0.8903292
C          -0.2061098    -1.8127741    -0.3548802
H          -0.2558423    -2.8885446    -0.5000443
C           6.3498116    -0.3649896     0.2096551
H           7.3882755    -0.6485766     0.0592887
C           5.9289823     0.1587628     1.4331082
H           6.6342268     0.2948389     2.2481742
C           0.9771428    -1.2257370     0.0928891
H           1.8463176    -1.8436417     0.3012035
C           4.5970181     0.5185763     1.5924179
H           4.2483450     0.9470687     2.5262615
C           3.6526824     0.3268991     0.5666809
C           4.0854830    -0.1483187    -0.6954326
C           3.2107878    -0.2314536    -1.9312298
H           2.4707620     0.5714879    -1.9735968
H           2.6579729    -1.1755130    -1.9896831
H           3.8346145    -0.1610926    -2.8281304
C           5.4387244    -0.4934956    -0.8355755
H           5.7852598    -0.8511069    -1.8024765
O           2.1154863     1.7550015     1.6583846
27
139_C14H12O_6-7-18-16 (-135,) energy =    -615.9445232
C          -0.1285941     0.9439491     0.1207634
H          -0.1161320     2.0156357     0.2918771
C          -1.2976576     0.2880122    -0.2538280
H          -2.2149973     0.8528809    -0.3959588
C          -1.2937701    -1.0983222    -0.4371561
H          -2.2085690    -1.6113071    -0.7220961
C           1.0653025     0.2253547     0.2882699
C           2.2842718     0.9639397     0.7517968
C          -0.1165658    -1.8249460    -0.2470073
H          -0.1154572    -2.9042726    -0.3727082
C           6.3017879    -0.5110980     0.3005085
H           7.3221984    -0.8727861     0.2043768
C           5.8429104    -0.0117737     1.5201595
H           6.4995201     0.0237623     2.3849543
C           1.0602098    -1.1655960     0.1078304
H           1.9743195    -1.7310190     0.2643798
C           4.5366073     0.4560332     1.6141113
H           4.1654030     0.8722398     2.5455133
C           3.6614096     0.3975586     0.5171225
C           4.1289755    -0.0735994    -0.7306904
C           3.2968486    -0.0583901    -1.9970779
H           2.6242751     0.8029528    -2.0409039
H           2.6729014    -0.9544133    -2.0931372
H           3.9507430    -0.0176921    -2.8741544
C           5.4556053    -0.5216506    -0.8068230
H           5.8339407    -0.8711356    -1.7648446
O           2.1624423     2.0179862     1.3650359
27
139_C14H12O_6-7-18-16 (-120,) energy =    -615.9447157
C          -0.1730202     0.9286000     0.1168873
H          -0.1893183     2.0067815     0.2396852
C          -1.3371450     0.2135646    -0.1466399
H          -2.2848304     0.7362179    -0.2442451
C          -1.2882394    -1.1779045    -0.2805314
H          -2.1983315    -1.7368450    -0.4819696
C           1.0575946     0.2628640     0.2331373
C           2.2764539     1.0714285     0.5575864
C          -0.0714321    -1.8501953    -0.1507455
H          -0.0336833    -2.9321933    -0.2430527
C           6.2343358    -0.6082722     0.3625192
H           7.2379644    -1.0235918     0.3248292
C           5.7090216    -0.1441668     1.5683690
H           6.2972494    -0.1918797     2.4805268
C           1.0982282    -1.1331181     0.1011773
H           2.0433613    -1.6564816     0.2110114
C           4.4252442     0.3956954     1.5913902
H           4.0095372     0.7840085     2.5167374
C           3.6464283     0.4504096     0.4273308
C           4.1744149    -0.0023746    -0.8005139
C           3.4053033     0.0965768    -2.1010455
H           2.8822754     1.0543930    -2.1936703
H           2.6479967    -0.6909487    -2.1918349
H           4.0840035     0.0031922    -2.9545447
C           5.4753249    -0.5226534    -0.8045228
H           5.9022588    -0.8581429    -1.7469693
O           2.1685880     2.2145714     0.9828705
27
139_C14H12O_6-7-18-16 (-105,) energy =    -615.9443409
C          -0.1658615     0.3521517    -1.2362412
H          -0.1643061     0.8713975    -2.1892079
C          -1.3374138    -0.1692425    -0.6975951
H          -2.2760266    -0.0645083    -1.2350300
C          -1.3074397    -0.8271589     0.5368272
H          -2.2232616    -1.2332943     0.9582866
C           1.0518639     0.2174032    -0.5495901
C           2.2830608     0.8112036    -1.1604258
C          -0.1025433    -0.9606470     1.2292510
H          -0.0796332    -1.4665555     2.1905422
C           6.1219451     0.3225419     0.7278746
H           7.0953234     0.2079959     1.1974211
C           5.4282002     1.5273192     0.8329029
H           5.8532389     2.3624141     1.3828177
C           1.0740099    -0.4412529     0.6889100
H           2.0101797    -0.5379291     1.2303465
C           4.1835370     1.6580079     0.2176431
H           3.6404314     2.5973301     0.2797477
C           3.6205675     0.5892064    -0.4888017
C           4.3156682    -0.6314260    -0.6062372
C           3.7490471    -1.7909146    -1.3956888
H           3.4776871    -1.4870803    -2.4135476
H           2.8429548    -2.1973917    -0.9303978
H           4.4780148    -2.6032901    -1.4720396
C           5.5687861    -0.7380343     0.0091979
H           6.1213523    -1.6702991    -0.0831272
O           2.2158392     1.5028847    -2.1672915
27
139_C14H12O_6-7-18-16 (-90,) energy =    -615.9442985
C          -0.1982951     0.3106822    -1.2309599
H          -0.1875733     0.7425566    -2.2265476
C          -1.3830507    -0.1065821    -0.6344764
H          -2.3250852    -0.0025274    -1.1660106
C          -1.3617072    -0.6609208     0.6503025
H          -2.2881326    -0.9871815     1.1157272
C           1.0229267     0.1795092    -0.5491117
C           2.2722797     0.6384256    -1.2320872
C          -0.1527293    -0.7951278     1.3351653
H          -0.1362631    -1.2245954     2.3330690
C           6.0881942     0.3467480     0.7425938
H           7.0588284     0.2786915     1.2266357
C           5.2885533     1.4736339     0.9262811
H           5.6285014     2.2946061     1.5515303
C           1.0369000    -0.3756330     0.7393088
H           1.9773376    -0.4752494     1.2722976
C           4.0444326     1.5435513     0.2980714
H           3.4157471     2.4202402     0.4331521
C           3.5958845     0.4942664    -0.5105198
C           4.3998676    -0.6452085    -0.7110370
C           3.9434866    -1.7742188    -1.6073732
H           3.7843298    -1.4237230    -2.6337434
H           2.9941830    -2.2050932    -1.2654145
H           4.6849746    -2.5782054    -1.6347834
C           5.6425824    -0.6973846    -0.0694790
H           6.2727335    -1.5718913    -0.2147876
O           2.2409681     1.1168994    -2.3573326
27
139_C14H12O_6-7-18-16 (-75,) energy =    -615.9452453
C          -0.2185616     0.2700414    -1.2275989
H          -0.1828557     0.6077067    -2.2583456
C          -1.4270548    -0.0057382    -0.5975960
H          -2.3621095     0.1194405    -1.1368632
C          -1.4386860    -0.4457879     0.7307563
H          -2.3833435    -0.6625804     1.2226554
C           0.9946122     0.1134830    -0.5362561
C           2.2694919     0.4033704    -1.2643157
C          -0.2384457    -0.6080786     1.4245845
H          -0.2464370    -0.9526758     2.4550058
C           6.0763426     0.3175969     0.7413797
H           7.0481411     0.3057330     1.2277739
C           5.1714462     1.3442824     1.0043401
H           5.4289795     2.1448453     1.6922522
C           0.9748414    -0.3279990     0.7954351
H           1.9080440    -0.4554290     1.3345630
C           3.9255192     1.3368322     0.3759643
H           3.2121894     2.1320883     0.5786330
C           3.5814615     0.3162710    -0.5177668
C           4.4983549    -0.7153037    -0.8066609
C           4.1658164    -1.8089226    -1.7962889
H           4.0215676    -1.3980702    -2.8010862
H           3.2382450    -2.3300549    -1.5286743
H           4.9669381    -2.5527844    -1.8398092
C           5.7351390    -0.6990516    -0.1526581
H           6.4468872    -1.4959111    -0.3558203
O           2.2663842     0.6773894    -2.4571879
27
139_C14H12O_6-7-18-16 (-60,) energy =    -615.9466416
C          -0.2314161     0.2557592    -1.2075725
H          -0.1812152     0.5336621    -2.2553698
C          -1.4514428     0.1132698    -0.5555682
H          -2.3787586     0.2890593    -1.0940913
C          -1.4844314    -0.2591873     0.7926590
H          -2.4380166    -0.3734102     1.3015349
C           0.9735987     0.0387894    -0.5184038
C           2.2566562     0.1743992    -1.2814572
C          -0.2933688    -0.4877311     1.4833365
H          -0.3173280    -0.7851612     2.5281333
C           6.0491489     0.3947745     0.7350127
H           7.0167658     0.4641085     1.2250254
C           5.0346123     1.2955740     1.0530059
H           5.2008225     2.0798618     1.7862113
C           0.9318490    -0.3365550     0.8331140
H           1.8558301    -0.5213799     1.3710631
C           3.7962925     1.1789283     0.4220647
H           2.9972330     1.8736705     0.6676549
C           3.5662741     0.1813159    -0.5350739
C           4.5981542    -0.7181816    -0.8828535
C           4.4089399    -1.7857202    -1.9366570
H           4.3110610    -1.3403039    -2.9314660
H           3.4998361    -2.3734077    -1.7648630
H           5.2594932    -2.4741669    -1.9453936
C           5.8235487    -0.6004221    -0.2178724
H           6.6205052    -1.2994961    -0.4604893
O           2.2476694     0.2557204    -2.5037975
27
139_C14H12O_6-7-18-16 (-45,) energy =    -615.9475151
C          -0.2694333     0.2815315    -1.1391681
H          -0.2072694     0.5174848    -2.1965594
C          -1.4892490     0.2880005    -0.4704733
H          -2.3996538     0.5455813    -1.0049407
C          -1.5440620    -0.0427097     0.8874298
H          -2.4975097    -0.0429425     1.4091701
C           0.9163731    -0.0352829    -0.4562902
C           2.1925601    -0.0709735    -1.2473273
C          -0.3743744    -0.3783387     1.5708604
H          -0.4157119    -0.6489592     2.6224181
C           5.9962668     0.3999762     0.7054212
H           6.9637606     0.5299560     1.1833191
C           4.9146019     1.1945303     1.0806664
H           5.0266232     1.9570207     1.8463632
C           0.8518598    -0.3700962     0.9050957
H           1.7569410    -0.6414339     1.4386754
C           3.6799440     0.9975965     0.4653042
H           2.8326517     1.6132526     0.7525216
C           3.5142658     0.0309415    -0.5392055
C           4.6155688    -0.7614084    -0.9425549
C           4.5188500    -1.8003043    -2.0364901
H           4.4607598    -1.3274901    -3.0216434
H           3.6218128    -2.4200217    -1.9397210
H           5.3945087    -2.4569073    -2.0163124
C           5.8376441    -0.5666146    -0.2887507
H           6.6865042    -1.1837852    -0.5735501
O           2.1489505    -0.1838980    -2.4675856
27
139_C14H12O_6-7-18-16 (-30,) energy =    -615.9472371
C          -0.2190400     0.2950512    -1.1263434
H          -0.1215933     0.4954152    -2.1884393
C          -1.4448466     0.4272620    -0.4808312
H          -2.3184399     0.7530226    -1.0390125
C          -1.5539196     0.1322376     0.8815710
H          -2.5126699     0.2280869     1.3843882
C           0.9225505    -0.1051836    -0.4137845
C           2.2005996    -0.2870272    -1.1873723
C          -0.4314130    -0.2933529     1.5933413
H          -0.5155314    -0.5408250     2.6480844
C           5.9926852     0.4473421     0.7146824
H           6.9542392     0.6367119     1.1847393
C           4.8536844     1.1274516     1.1414648
H           4.9129521     1.8600096     1.9414504
C           0.8027785    -0.4055258     0.9518554
H           1.6695072    -0.7480741     1.5083476
C           3.6313092     0.8554424     0.5326329
H           2.7451152     1.3913196     0.8557094
C           3.5261804    -0.0708936    -0.5197284
C           4.6865017    -0.7535403    -0.9681232
C           4.6752189    -1.7605269    -2.0950470
H           4.5455454    -1.2678254    -3.0632979
H           3.8490647    -2.4719962    -2.0055894
H           5.6169268    -2.3189015    -2.1101495
C           5.8983249    -0.4813143    -0.3219322
H           6.7911870    -1.0105181    -0.6461059
O           2.1354228    -0.5838333    -2.3764335
27
139_C14H12O_6-7-18-16 (-15,) energy =    -615.9457047
C          -0.1844755     0.2724076    -1.1104968
H          -0.0505272     0.4285912    -2.1761345
C          -1.4122098     0.5196949    -0.5019549
H          -2.2433308     0.8935793    -1.0938338
C          -1.5788440     0.2755508     0.8641243
H          -2.5396521     0.4594920     1.3375440
C           0.9053705    -0.1880855    -0.3559357
C           2.1815101    -0.5040260    -1.0949073
C          -0.5112155    -0.2150588     1.6173188
H          -0.6410540    -0.4269231     2.6752148
C           5.9861899     0.5004120     0.6628222
H           6.9486207     0.7504026     1.1017404
C           4.8144848     1.0616282     1.1661992
H           4.8464844     1.7605187     1.9972331
C           0.7266547    -0.4389620     1.0131532
H           1.5489821    -0.8332130     1.6025527
C           3.5946473     0.7169471     0.5916679
H           2.6869198     1.1720125     0.9703293
C           3.5153405    -0.1682481    -0.4994439
C           4.7105538    -0.7384501    -1.0182149
C           4.7475415    -1.7072054    -2.1770549
H           4.4578941    -1.2213992    -3.1132892
H           4.0464397    -2.5360193    -2.0426558
H           5.7574843    -2.1152478    -2.2898636
C           5.9226096    -0.3863779    -0.4114289
H           6.8412133    -0.8226554    -0.7960916
O           2.0892998    -0.9852643    -2.2205655
27
139_C14H12O_6-7-18-16 (0,) energy =    -615.9434940
C           0.4645347     0.8585254    -0.3306840
H           1.0938906     1.5703060    -0.8571881
C          -0.7951121     1.2541214     0.1222610
H          -1.1318110     2.2738641    -0.0441646
C          -1.6197965     0.3425581     0.7827877
H          -2.5960356     0.6540384     1.1445959
C           0.9062266    -0.4592749    -0.1405695
C           2.2071373    -0.9880712    -0.6987661
C          -1.1916218    -0.9747877     0.9665660
H          -1.8345602    -1.6914250     1.4705286
C           5.9074896     1.0571709     0.1482190
H           6.8425453     1.5721784     0.3528416
C           4.7117725     1.5225619     0.6908382
H           4.6964702     2.4018183     1.3285873
C           0.0542833    -1.3772756     0.4912154
H           0.3811451    -2.4066865     0.6006186
C           3.5297274     0.8444175     0.4109983
H           2.6081879     1.1929823     0.8605415
C           3.5072388    -0.3062844    -0.4001465
C           4.7284646    -0.7813914    -0.9577501
C           4.8378406    -1.9937661    -1.8522213
H           4.2037501    -1.9045640    -2.7390360
H           4.5065354    -2.9033417    -1.3430212
H           5.8767003    -2.1264969    -2.1724427
C           5.9030342    -0.0790817    -0.6594435
H           6.8402983    -0.4367830    -1.0784376
O           2.1615944    -2.0401941    -1.3292106
27
139_C14H12O_6-7-18-16 (15,) energy =    -615.9457052
C           0.5610604     0.7879567    -0.3060761
H           1.2601555     1.4607375    -0.7936573
C          -0.7135302     1.2434787     0.0339140
H          -0.9944129     2.2708017    -0.1819413
C          -1.6247991     0.3814806     0.6456862
H          -2.6135509     0.7398320     0.9196558
C           0.9320263    -0.5410314    -0.0505421
C           2.2514717    -1.1297127    -0.4829111
C          -1.2665428    -0.9462124     0.8957933
H          -1.9763144    -1.6227758     1.3641534
C           5.8915956     1.1048167     0.0933285
H           6.8128686     1.6639319     0.2350159
C           4.7285576     1.4800909     0.7624968
H           4.7272758     2.3300146     1.4390417
C          -0.0039628    -1.4081385     0.5337607
H           0.2761523    -2.4443399     0.6942579
C           3.5606433     0.7522578     0.5552066
H           2.6632347     1.0328519     1.0940687
C           3.5281179    -0.3672120    -0.2971526
C           4.7153928    -0.7550640    -0.9773084
C           4.7983949    -1.9299989    -1.9235833
H           4.0059903    -1.9078833    -2.6772803
H           4.6778693    -2.8790926    -1.3932258
H           5.7682851    -1.9317463    -2.4319972
C           5.8724054     0.0041354    -0.7624931
H           6.7832371    -0.2802248    -1.2836745
O           2.2509739    -2.2726991    -0.9311462
27
139_C14H12O_6-7-18-16 (30,) energy =    -615.9472372
C           0.6472382     0.7392662    -0.2819647
H           1.4007985     1.3848418    -0.7219913
C          -0.6387296     1.2313027    -0.0550609
H          -0.8756560     2.2602853    -0.3116962
C          -1.6176009     0.4035343     0.4967056
H          -2.6162890     0.7903797     0.6815986
C           0.9624910    -0.5923775     0.0293241
C           2.3008736    -1.2126492    -0.2689119
C          -1.3138961    -0.9262993     0.8037711
H          -2.0759087    -1.5746739     1.2278093
C           5.8862460     1.1514325     0.0361599
H           6.7971618     1.7388946     0.1168958
C           4.7774182     1.4593975     0.8220755
H           4.8112981     2.2827969     1.5298898
C          -0.0376906    -1.4239041     0.5578547
H           0.2082399    -2.4600741     0.7665485
C           3.6176447     0.7004830     0.6885554
H           2.7567467     0.9314401     1.3069383
C           3.5498346    -0.3848026    -0.2026135
C           4.6821337    -0.7117518    -0.9928034
C           4.7080860    -1.8622925    -1.9724461
H           3.8104140    -1.8940249    -2.5968765
H           4.7472442    -2.8235305    -1.4513392
H           5.5842100    -1.7818763    -2.6241864
C           5.8269534     0.0829698    -0.8586937
H           6.6953277    -0.1480274    -1.4709955
O           2.3521565    -2.4095023    -0.5355737
27
139_C14H12O_6-7-18-16 (45,) energy =    -615.9475153
C           0.7126621     0.6966015    -0.2501415
H           1.5100211     1.3288377    -0.6269910
C          -0.5826962     1.2039029    -0.1421592
H          -0.7849696     2.2322600    -0.4289892
C          -1.6151833     0.3921682     0.3300077
H          -2.6222719     0.7908495     0.4200535
C           0.9837867    -0.6339430     0.1044218
C           2.3398852    -1.2604596    -0.0502903
C          -1.3543269    -0.9362617     0.6814463
H          -2.1580722    -1.5705765     1.0454128
C           5.8915294     1.1664260    -0.0249100
H           6.7983938     1.7652875    -0.0081612
C           4.8582296     1.4300792     0.8721894
H           4.9494252     2.2288357     1.6028780
C          -0.0665141    -1.4479484     0.5595815
H           0.1536579    -2.4807224     0.8096318
C           3.6985299     0.6591431     0.8199593
H           2.8891386     0.8587509     1.5159995
C           3.5639892    -0.3898977    -0.1032042
C           4.6205289    -0.6789973    -0.9996330
C           4.5578551    -1.8102659    -2.0004491
H           3.5998866    -1.8409718    -2.5292687
H           4.6659872    -2.7792525    -1.5038422
H           5.3566375    -1.7073058    -2.7418389
C           5.7626037     0.1283524    -0.9488566
H           6.5729728    -0.0688348    -1.6467060
O           2.4408537    -2.4797320    -0.1328699
27
139_C14H12O_6-7-18-16 (60,) energy =    -615.9466415
C           0.8046775     0.6339306    -0.2238867
H           1.6282288     1.2775721    -0.5150621
C          -0.5030243     1.1191574    -0.2595451
H          -0.6915296     2.1419792    -0.5741015
C          -1.5659479     0.2919369     0.1062587
H          -2.5837634     0.6724435     0.0819183
C           1.0578082    -0.6881881     0.1725591
C           2.4355118    -1.2785638     0.1888841
C          -1.3221235    -1.0280822     0.5007449
H          -2.1499325    -1.6727850     0.7834322
C           5.9387068     1.2073694    -0.0280212
H           6.8370422     1.8176387    -0.0702623
C           4.9879504     1.4238923     0.9674715
H           5.1367416     2.1977566     1.7153394
C          -0.0201980    -1.5160707     0.5282803
H           0.1923110    -2.5392766     0.8207296
C           3.8360775     0.6379425     0.9934499
H           3.0863765     0.8032895     1.7629243
C           3.6319182    -0.3730067     0.0444964
C           4.6036217    -0.6168367    -0.9510459
C           4.4452499    -1.7208349    -1.9718384
H           3.4666909    -1.6853164    -2.4642965
H           4.5227618    -2.7047293    -1.4989914
H           5.2155463    -1.6444551    -2.7453305
C           5.7383981     0.2013144    -0.9751060
H           6.4851063     0.0385755    -1.7488216
O           2.5923014    -2.4889191     0.2949317
27
139_C14H12O_6-7-18-16 (75,) energy =    -615.9452453
C           0.8529253     0.6026864    -0.2185456
H           1.6912069     1.2507950    -0.4531285
C          -0.4535135     1.0636918    -0.3830234
H          -0.6288281     2.0729328    -0.7453067
C          -1.5317242     0.2296033    -0.0828598
H          -2.5490248     0.5906471    -0.2097167
C           1.0885737    -0.7005805     0.2447972
C           2.4691540    -1.2522036     0.4148019
C          -1.3045493    -1.0713727     0.3798228
H          -2.1446854    -1.7201152     0.6124460
C           5.9572478     1.2141701    -0.1070365
H           6.8520132     1.8187118    -0.2296255
C           5.1339666     1.3947563     1.0027689
H           5.3798623     2.1358113     1.7582993
C          -0.0032531    -1.5340971     0.5405980
H           0.1990567    -2.5403539     0.8930873
C           3.9851306     0.6142213     1.1376279
H           3.3352732     0.7515639     1.9985405
C           3.6582649    -0.3491236     0.1765027
C           4.4962124    -0.5540075    -0.9389126
C           4.1854870    -1.6133274    -1.9719904
H           3.1833484    -1.4823094    -2.3987593
H           4.2142458    -2.6141761    -1.5284810
H           4.9063719    -1.5799129    -2.7943222
C           5.6336434     0.2510128    -1.0646147
H           6.2817833     0.1130012    -1.9270067
O           2.6475505    -2.4261756     0.7114981
27
139_C14H12O_6-7-18-16 (90,) energy =    -615.9442985
C           0.9152307     0.5490691    -0.2705829
H           1.7642243     1.1927173    -0.4787971
C          -0.3775558     0.9752005    -0.5760395
H          -0.5329688     1.9520386    -1.0256488
C          -1.4683115     0.1481840    -0.3021660
H          -2.4752094     0.4814891    -0.5396487
C           1.1240423    -0.7110498     0.3098041
C           2.4913460    -1.2139709     0.6497353
C          -1.2675591    -1.1093221     0.2781041
H          -2.1176580    -1.7518118     0.4910160
C           5.9710124     1.2166204    -0.0782758
H           6.8590689     1.8170217    -0.2569860
C           5.2718896     1.3354387     1.1217763
H           5.6091102     2.0259830     1.8898412
C           0.0203799    -1.5366283     0.5817735
H           0.2028122    -2.5076268     1.0308722
C           4.1328823     0.5575503     1.3338086
H           3.5833932     0.6413341     2.2682208
C           3.6893539    -0.3361452     0.3537054
C           4.3936282    -0.4715447    -0.8590104
C           3.9456900    -1.4557690    -1.9159132
H           2.9216599    -1.2512267    -2.2524952
H           3.9565968    -2.4817054    -1.5299650
H           4.5997961    -1.4161411    -2.7920014
C           5.5312898     0.3200119    -1.0534567
H           6.0836449     0.2262913    -1.9857042
O           2.6543501    -2.3174022     1.1516524
27
139_C14H12O_6-7-18-16 (105,) energy =    -615.9443407
C           0.9582601     0.5191758    -0.3176464
H           1.8021003     1.1715114    -0.5208646
C          -0.3230550     0.8853818    -0.7300790
H          -0.4742498     1.8221663    -1.2593616
C          -1.4088038     0.0504202    -0.4596609
H          -2.4066661     0.3358033    -0.7823366
C           1.1612723    -0.6864917     0.3703795
C           2.5129337    -1.1127261     0.8532077
C          -1.2142175    -1.1522409     0.2282747
H          -2.0602155    -1.8006571     0.4395849
C           6.0077942     1.2303384    -0.0622754
H           6.8959332     1.8156299    -0.2852294
C           5.4247759     1.2907607     1.2027474
H           5.8519924     1.9211475     1.9776961
C           0.0622002    -1.5172286     0.6430913
H           0.2378896    -2.4421074     1.1829912
C           4.2893937     0.5270074     1.4719149
H           3.8352423     0.5543165     2.4588996
C           3.7238344    -0.2848378     0.4823023
C           4.3083550    -0.3580451    -0.7983017
C           3.7422474    -1.2571032    -1.8752705
H           2.7432447    -0.9348920    -2.1927140
H           3.6485228    -2.2914342    -1.5238704
H           4.3880009    -1.2610210    -2.7585335
C           5.4542613     0.4079239    -1.0443911
H           5.9222910     0.3522999    -2.0246037
O           2.6441808    -2.0932439     1.5729616
27
139_C14H12O_6-7-18-16 (120,) energy =    -615.9447160
C           0.9559211     0.5009661    -0.3228493
H           1.7757172     1.1890411    -0.5066032
C          -0.3177957     0.7851971    -0.8154180
H          -0.4862224     1.6928906    -1.3884621
C          -1.3740316    -0.0941198    -0.5690610
H          -2.3650448     0.1254680    -0.9575522
C           1.1804654    -0.6628501     0.4274615
C           2.5166723    -0.9848519     1.0236153
C          -1.1586239    -1.2546897     0.1813554
H          -1.9814406    -1.9372454     0.3760467
C           6.0780894     1.1567525    -0.0958719
H           6.9827431     1.6958381    -0.3645094
C           5.5978675     1.1951026     1.2131055
H           6.1226991     1.7620819     1.9769224
C           0.1087420    -1.5329369     0.6835013
H           0.2959490    -2.4194687     1.2808501
C           4.4435115     0.4866272     1.5380004
H           4.0688061     0.4855505     2.5575414
C           3.7445361    -0.2372425     0.5622537
C           4.2306219    -0.2949433    -0.7612645
C           3.5562720    -1.1170788    -1.8392699
H           2.6656811    -0.6187177    -2.2398383
H           3.2336995    -2.0944814    -1.4648640
H           4.2427234    -1.2895846    -2.6740359
C           5.4046757     0.4083808    -1.0611913
H           5.8013658     0.3578475    -2.0726782
O           2.6131706    -1.8095010     1.9235748
27
139_C14H12O_6-7-18-16 (135,) energy =    -615.9445233
C           0.8999442     0.5157673    -0.3529908
H           1.6797997     1.2561680    -0.5061118
C          -0.3639275     0.7072966    -0.9110184
H          -0.5648398     1.5951208    -1.5044366
C          -1.3691845    -0.2395921    -0.7042376
H          -2.3512672    -0.0941529    -1.1464628
C           1.1641789    -0.6190191     0.4279138
C           2.4794850    -0.8234066     1.1166415
C          -1.1147829    -1.3707844     0.0775821
H          -1.8985977    -2.1048456     0.2436392
C           6.1545808     1.0406509    -0.1241490
H           7.0895874     1.5110125    -0.4171035
C           5.7440190     1.0582878     1.2095022
H           6.3542276     1.5387759     1.9691361
C           0.1399316    -1.5520513     0.6521028
H           0.3504645    -2.4104262     1.2820417
C           4.5493220     0.4389860     1.5604852
H           4.2222174     0.4180873     2.5954232
C           3.7313198    -0.1670595     0.5927776
C           4.1570920    -0.2201534    -0.7538749
C           3.4035839    -0.9577651    -1.8422721
H           2.6244839    -0.3372055    -2.2997792
H           2.9116244    -1.8598482    -1.4675737
H           4.0934950    -1.2582490    -2.6374045
C           5.3747224     0.3937641    -1.0810254
H           5.7228730     0.3460019    -2.1103873
O           2.5342638    -1.4955659     2.1399438
27
139_C14H12O_6-7-18-16 (150,) energy =    -615.9428768
C           0.8200641     0.5551372    -0.3656733
H           1.5424116     1.3556080    -0.5003659
C          -0.4326942     0.6349643    -0.9734933
H          -0.6834987     1.4966224    -1.5862500
C          -1.3628796    -0.3907733    -0.7922915
H          -2.3349083    -0.3341799    -1.2750744
C           1.1461876    -0.5433445     0.4426449
C           2.4366136    -0.6095130     1.2036838
C          -1.0471706    -1.4854734     0.0179460
H          -1.7734846    -2.2799383     0.1665117
C           6.2448159     0.8979215    -0.1279422
H           7.2144638     1.2783563    -0.4385411
C           5.8777777     0.9128042     1.2186832
H           6.5573305     1.2989377     1.9732273
C           0.1928702    -1.5517630     0.6480348
H           0.4422814    -2.3778546     1.3064431
C           4.6350532     0.4133408     1.5861358
H           4.3331887     0.3943020     2.6281495
C           3.7202020    -0.0659105     0.6301745
C           4.1100230    -0.1381117    -0.7295492
C           3.2937150    -0.7929614    -1.8268401
H           2.5715517    -0.1040587    -2.2786977
H           2.7262452    -1.6547838    -1.4671288
H           3.9599445    -1.1383341    -2.6239614
C           5.3755472     0.3614208    -1.0743928
H           5.6904203     0.3035334    -2.1138060
O           2.4409140    -1.1135478     2.3217253
27
139_C14H12O_6-7-18-16 (165,) energy =    -615.9398089
C           0.6824057     0.6089858    -0.3734358
H           1.3226734     1.4785452    -0.4978585
C          -0.5545134     0.5551623    -1.0157343
H          -0.8753453     1.3823105    -1.6432624
C          -1.3785591    -0.5601416    -0.8506839
H          -2.3367811    -0.6087054    -1.3610247
C           1.0965452    -0.4430332     0.4550854
C           2.3564608    -0.3550920     1.2680817
C          -0.9751444    -1.6086122    -0.0193436
H          -1.6196586    -2.4724502     0.1191103
C           6.3122569     0.7059952    -0.0795675
H           7.3195141     0.9721420    -0.3895562
C           5.9537780     0.7374957     1.2687847
H           6.6768675     1.0208719     2.0284343
C           0.2455866    -1.5401254     0.6490315
H           0.5531026    -2.3300522     1.3272483
C           4.6600898     0.3892592     1.6302369
H           4.3577129     0.3913694     2.6717647
C           3.6850297     0.0427086     0.6737121
C           4.0645844    -0.0578623    -0.6901832
C           3.1947138    -0.5955827    -1.8098607
H           2.5069640     0.1575599    -2.2081574
H           2.5837232    -1.4442073    -1.4934790
H           3.8302947    -0.9281720    -2.6366449
C           5.3804798     0.2967643    -1.0291367
H           5.6829588     0.2231676    -2.0710409
O           2.2902864    -0.6571112     2.4552264
27
139_C14H12O_6-7-18-16 (180,) energy =    -615.9364496
C           0.5190401     0.7001354    -0.3697170
H           1.0251040     1.6564495    -0.4772781
C          -0.6943561     0.4770108    -1.0208558
H          -1.1290681     1.2602669    -1.6361170
C          -1.3482148    -0.7488993    -0.8813829
H          -2.2880313    -0.9267980    -1.3970139
C           1.0804409    -0.2957354     0.4394312
C           2.3147961    -0.0333638     1.2647149
C          -0.7971657    -1.7415859    -0.0679891
H          -1.3087382    -2.6925929     0.0535402
C           6.3961658     0.4141392    -0.0566915
H           7.4350607     0.5230473    -0.3572598
C           6.0303887     0.5254772     1.2850341
H           6.7777106     0.7168608     2.0499710
C           0.4014589    -1.5094347     0.6064130
H           0.8161959    -2.2657883     1.2665015
C           4.6954332     0.3797535     1.6332044
H           4.3820545     0.4550251     2.6685008
C           3.6912463     0.1443154     0.6722829
C           4.0661695    -0.0160227    -0.6883823
C           3.1346481    -0.3815776    -1.8261264
H           2.4768978     0.4453924    -2.1111537
H           2.4872878    -1.2272841    -1.5805489
H           3.7232229    -0.6526913    -2.7079973
C           5.4234419     0.1386131    -1.0136006
H           5.7214769     0.0222359    -2.0526474
O           2.1702226    -0.0327513     2.4820824
