19
400_C8H10O_6-7-10-11 (-165,) energy =    -386.0777148
C           0.5815929     0.5887600    -0.9181974
H           1.1372825     0.9630541    -1.7758388
C          -0.6552572     1.1492612    -0.5972545
H          -1.0556469     1.9574750    -1.2038573
C          -1.3811754     0.6635888     0.4917700
H          -2.3480642     1.0935207     0.7397306
C           1.1140096    -0.4532287    -0.1504420
C           2.4844699    -1.0062856    -0.4717557
H           3.2528585    -0.4209197     0.0665437
H           2.7016458    -0.8937673    -1.5476717
O           2.5691698    -2.3651295    -0.0850943
C           3.8967446    -2.8421832    -0.0423069
H           3.8523912    -3.8853837     0.2811860
H           4.5123652    -2.2699066     0.6705961
H           4.3821517    -2.7973194    -1.0307417
C          -0.8603806    -0.3827652     1.2555312
H          -1.4227998    -0.7710994     2.1009037
C           0.3809853    -0.9360232     0.9392901
H           0.7852479    -1.7557639     1.5238616
19
400_C8H10O_6-7-10-11 (-150,) energy =    -386.0765800
C           0.5766728     0.6084324    -0.9238276
H           1.1102218     1.0053665    -1.7855368
C          -0.6295126     1.1883792    -0.5302900
H          -1.0283513     2.0339602    -1.0847749
C          -1.3274606     0.6754594     0.5648984
H          -2.2708426     1.1209206     0.8695286
C           1.1071113    -0.4814745    -0.2234720
C           2.4489702    -1.0553540    -0.6270988
H           3.2496295    -0.4596001    -0.1542446
H           2.5938229    -0.9671275    -1.7163948
O           2.5603790    -2.4082177    -0.2210035
C           3.8842922    -2.8072469     0.0648585
H           3.8382230    -3.8467063     0.4005405
H           4.3322495    -2.1920331     0.8614298
H           4.5352620    -2.7521195    -0.8224692
C          -0.8092903    -0.4182440     1.2605021
H          -1.3505447    -0.8281977     2.1095082
C           0.4018241    -0.9923347     0.8708855
H           0.8033596    -1.8495691     1.4006658
19
400_C8H10O_6-7-10-11 (-135,) energy =    -386.0753259
C           0.6031711     0.6386411    -0.9191349
H           1.1358389     1.0742770    -1.7628788
C          -0.5681537     1.2384125    -0.4588158
H          -0.9411978     2.1374299    -0.9428067
C          -1.2643663     0.6800719     0.6161228
H          -2.1803981     1.1430901     0.9734298
C           1.1005313    -0.5198183    -0.3084546
C           2.4017285    -1.1238918    -0.8019018
H           3.2373291    -0.4803609    -0.4813377
H           2.4204063    -1.1349996    -1.9032739
O           2.5864359    -2.4402989    -0.3089061
C           3.8862717    -2.7025077     0.1786364
H           3.8783337    -3.7238423     0.5690024
H           4.1663562    -2.0126982     0.9900062
H           4.6483690    -2.6356660    -0.6138392
C          -0.7789103    -0.4789062     1.2221678
H          -1.3180861    -0.9239712     2.0547030
C           0.3979215    -1.0756084     0.7638482
H           0.7751432    -1.9825697     1.2235810
19
400_C8H10O_6-7-10-11 (-120,) energy =    -386.0749450
C           0.6960435     0.6323438    -0.8651874
H           1.2654695     1.1024105    -1.6655692
C          -0.4269428     1.2764976    -0.3487122
H          -0.7263559     2.2429177    -0.7463354
C          -1.1640193     0.6821264     0.6791480
H          -2.0396364     1.1830560     1.0835335
C           1.0997634    -0.6122883    -0.3638343
C           2.3215079    -1.2951659    -0.9552425
H           3.1806519    -0.6088616    -0.9156606
H           2.1427210    -1.5117353    -2.0195761
O           2.6269272    -2.5182309    -0.3043150
C           3.9085491    -2.5610652     0.2905582
H           3.9984800    -3.5350373     0.7793720
H           4.0392410    -1.7718207     1.0468776
H           4.7119658    -2.4669865    -0.4564726
C          -0.7679538    -0.5574673     1.1807434
H          -1.3364061    -1.0279215     1.9791731
C           0.3576113    -1.2026192     0.6616839
H           0.6698708    -2.1683188     1.0440508
19
400_C8H10O_6-7-10-11 (-105,) energy =    -386.0759069
C           0.7649532     0.6282318    -0.8284627
H           1.3723645     1.1176424    -1.5880838
C          -0.3147379     1.3080134    -0.2650432
H          -0.5431694     2.3209974    -0.5866079
C          -1.0937160     0.6916829     0.7170162
H          -1.9328026     1.2214206     1.1602644
C           1.0771394    -0.6760190    -0.4249527
C           2.2257312    -1.4200273    -1.0862886
H           3.0668425    -0.7348702    -1.2687152
H           1.8989494    -1.7870641    -2.0700881
O           2.6470075    -2.5593294    -0.3525783
C           3.8675584    -2.3809620     0.3396487
H           4.0749727    -3.3177126     0.8639847
H           3.8101053    -1.5669037     1.0784001
H           4.6985547    -2.1701278    -0.3511328
C          -0.7847267    -0.6059412     1.1271328
H          -1.3843617    -1.0919202     1.8927716
C           0.2931039    -1.2873436     0.5579471
H           0.5407310    -2.2956003     0.8733681
19
400_C8H10O_6-7-10-11 (-90,) energy =    -386.0775385
C           0.8515045     0.6045890    -0.7989992
H           1.4821242     1.1029008    -1.5331996
C          -0.1904154     1.3084272    -0.1933396
H          -0.3671137     2.3479891    -0.4574683
C          -0.9957197     0.6811347     0.7589797
H          -1.8042528     1.2285212     1.2362682
C           1.0957224    -0.7340133    -0.4709042
C           2.1930751    -1.5133614    -1.1771338
H           2.9977405    -0.8337426    -1.4990475
H           1.7835470    -1.9768372    -2.0847885
O           2.7116968    -2.5858565    -0.4078390
C           3.8095487    -2.2166855     0.4057044
H           4.1260384    -3.1160918     0.9405401
H           3.5393890    -1.4425953     1.1396809
H           4.6515192    -1.8469269    -0.2002399
C          -0.7526561    -0.6515658     1.0979585
H          -1.3733657    -1.1452066     1.8415225
C           0.2845132    -1.3556838     0.4850120
H           0.4815161    -2.3906144     0.7475036
19
400_C8H10O_6-7-10-11 (-75,) energy =    -386.0786183
C           0.9222379     0.5695022    -0.7764744
H           1.5769984     1.0589925    -1.4949950
C          -0.0730762     1.3071850    -0.1319597
H          -0.1898525     2.3654480    -0.3510570
C          -0.9073173     0.6885036     0.7999203
H          -1.6791818     1.2612563     1.3072065
C           1.0878112    -0.7933281    -0.5086540
C           2.1308047    -1.6121914    -1.2506187
H           2.8828877    -0.9438042    -1.7019197
H           1.6542895    -2.1655201    -2.0695996
O           2.7568738    -2.6054836    -0.4558814
C           3.7034256    -2.0782087     0.4561334
H           4.1306441    -2.9275287     0.9955638
H           3.2428620    -1.3891876     1.1784130
H           4.5117029    -1.5453863    -0.0700158
C          -0.7417213    -0.6701669     1.0811916
H          -1.3856995    -1.1570975     1.8091801
C           0.2469799    -1.4063164     0.4291901
H           0.3836097    -2.4616139     0.6480983
19
400_C8H10O_6-7-10-11 (-60,) energy =    -386.0780733
C           0.9957630     0.5298685    -0.7598154
H           1.6691828     1.0115043    -1.4659375
C           0.0425542     1.2918930    -0.0795791
H          -0.0230495     2.3618875    -0.2591590
C          -0.8158631     0.6811777     0.8345866
H          -1.5552739     1.2722559     1.3684834
C           1.0941671    -0.8481590    -0.5454231
C           2.0973050    -1.6912986    -1.3119835
H           2.7699109    -1.0263241    -1.8809411
H           1.5822350    -2.3347772    -2.0345660
O           2.8563388    -2.5862090    -0.5123031
C           3.6317681    -1.9501335     0.4875253
H           4.2060377    -2.7367882     0.9839375
H           3.0104225    -1.4335954     1.2310240
H           4.3324428    -1.2196474     0.0507533
C          -0.7185433    -0.6944945     1.0635147
H          -1.3831034    -1.1755906     1.7766345
C           0.2272329    -1.4528070     0.3757938
H           0.3090848    -2.5220279     0.5542529
19
400_C8H10O_6-7-10-11 (-45,) energy =    -386.0758585
C           1.0566792     0.4936318    -0.7407143
H           1.7524724     0.9633719    -1.4326797
C           0.1399063     1.2788350    -0.0369862
H           0.1247752     2.3555480    -0.1845881
C          -0.7494862     0.6817522     0.8561539
H          -1.4619670     1.2905144     1.4065162
C           1.0894964    -0.8936080    -0.5697746
C           2.0659308    -1.7552529    -1.3467168
H           2.6370681    -1.1060701    -2.0326139
H           1.5309452    -2.4903925    -1.9578295
O           2.9686718    -2.5294061    -0.5620882
C           3.5783148    -1.8461680     0.5173841
H           4.2841049    -2.5516738     0.9642034
H           2.8536733    -1.5315074     1.2788673
H           4.1349613    -0.9562973     0.1800195
C          -0.7210250    -0.7038636     1.0405321
H          -1.4121228    -1.1748713     1.7348205
C           0.1892543    -1.4837935     0.3298451
H           0.2134250    -2.5616932     0.4727386
19
400_C8H10O_6-7-10-11 (-30,) energy =    -386.0729723
C           1.1027234     0.4646316    -0.7264109
H           1.8159928     0.9251294    -1.4064622
C           0.2141439     1.2653071    -0.0051093
H           0.2384452     2.3451076    -0.1262452
C          -0.7017601     0.6791589     0.8687503
H          -1.3942913     1.2998070     1.4311407
C           1.0846653    -0.9277078    -0.5909639
C           2.0439006    -1.7996236    -1.3744095
H           2.5002699    -1.1852413    -2.1678515
H           1.5040333    -2.6181548    -1.8632913
O           3.0857417    -2.4376926    -0.6299834
C           3.5565730    -1.7714972     0.5257425
H           4.3638572    -2.3950393     0.9201402
H           2.7828671    -1.6599763     1.2958818
H           3.9640324    -0.7727715     0.2999592
C          -0.7282930    -0.7106001     1.0151010
H          -1.4424576    -1.1731654     1.6913940
C           0.1563428    -1.5054717     0.2880363
H           0.1326594    -2.5872698     0.3999165
19
400_C8H10O_6-7-10-11 (-15,) energy =    -386.0706584
C           1.1437954     0.4488518    -0.7072342
H           1.8709175     0.9025350    -1.3770490
C           0.2699724     1.2586547     0.0205015
H           0.3203936     2.3392576    -0.0840847
C          -0.6682167     0.6806959     0.8770553
H          -1.3512180     1.3086236     1.4429878
C           1.0928995    -0.9458782    -0.5935925
C           2.0433568    -1.8243316    -1.3783879
H           2.3881655    -1.2646088    -2.2609272
H           1.5134532    -2.7128388    -1.7422273
O           3.2027688    -2.3176709    -0.6913460
C           3.5644553    -1.7176776     0.5368760
H           4.4583294    -2.2518925     0.8716401
H           2.7861112    -1.8137845     1.3053864
H           3.8136297    -0.6500900     0.4337870
C          -0.7306520    -0.7095232     0.9993137
H          -1.4630468    -1.1661664     1.6599043
C           0.1426076    -1.5136403     0.2673829
H           0.0880447    -2.5961803     0.3596183
19
400_C8H10O_6-7-10-11 (0,) energy =    -386.0697951
C           1.1637794     0.4439226    -0.6992756
H           1.9028028     0.8893690    -1.3616362
C           0.2991709     1.2637171     0.0267933
H           0.3677111     2.3440760    -0.0698935
C          -0.6566235     0.6956527     0.8713662
H          -1.3336031     1.3323215     1.4347569
C           1.0895230    -0.9516573    -0.5936483
C           2.0340904    -1.8372419    -1.3767379
H           2.2855607    -1.3432998    -2.3250656
H           1.5232753    -2.7774968    -1.6242965
O           3.2787900    -2.1943847    -0.7534977
C           3.5563513    -1.7070691     0.5442393
H           4.5408003    -2.1084739     0.8018518
H           2.8301443    -2.0492958     1.2955178
H           3.6020590    -0.6093865     0.5897121
C          -0.7441734    -0.6934036     0.9832914
H          -1.4907493    -1.1415740     1.6336466
C           0.1230601    -1.5084869     0.2549556
H           0.0480198    -2.5904147     0.3394206
19
400_C8H10O_6-7-10-11 (15,) energy =    -386.0706588
C           1.1838615     0.4415859    -0.6893538
H           1.9381249     0.8783509    -1.3403042
C           0.3235870     1.2701646     0.0306043
H           0.4087456     2.3498873    -0.0600515
C          -0.6510809     0.7120154     0.8612765
H          -1.3254854     1.3561595     1.4192451
C           1.0885729    -0.9540196    -0.5895701
C           2.0306867    -1.8480350    -1.3667745
H           2.1957586    -1.4326582    -2.3682004
H           1.5530819    -2.8311482    -1.4947963
O           3.3379192    -2.0638765    -0.8152640
C           3.5647288    -1.7162352     0.5363932
H           4.6137495    -1.9589204     0.7290707
H           2.9388345    -2.2915153     1.2362471
H           3.4061849    -0.6481388     0.7356467
C          -0.7594845    -0.6754228     0.9664161
H          -1.5193525    -1.1161978     1.6063217
C           0.1064662    -1.5000492     0.2459857
H           0.0165988    -2.5810580     0.3269426
19
400_C8H10O_6-7-10-11 (30,) energy =    -386.0729723
C           1.0595754     0.2784503    -0.9351975
H           1.6725284     0.6220361    -1.7655724
C          -0.3315336     0.3793447    -1.0100546
H          -0.7960654     0.8011252    -1.8974852
C          -1.1215954    -0.0608080     0.0521035
H          -2.2042074     0.0165192    -0.0033068
C           1.6793598    -0.2550456     0.1999308
C           3.1877044    -0.3623145     0.2871221
H           3.5454448     0.0477853     1.2380883
H           3.6250713     0.2474613    -0.5204087
O           3.7426378    -1.6792969     0.2211915
C           3.0313976    -2.6442411    -0.5299279
H           3.6331804    -3.5564569    -0.4877296
H           2.9119480    -2.3521876    -1.5858160
H           2.0362843    -2.8537216    -0.1175451
C          -0.5147675    -0.5981776     1.1907391
H          -1.1250432    -0.9389889     2.0230704
C           0.8742122    -0.6906427     1.2630376
H           1.3457500    -1.1057970     2.1511042
19
400_C8H10O_6-7-10-11 (45,) energy =    -386.0758585
C           1.0241630     0.3213908    -0.9315386
H           1.6281021     0.6860342    -1.7597220
C          -0.3667057     0.4457443    -0.9787154
H          -0.8397139     0.9071552    -1.8416770
C          -1.1454886    -0.0262919     0.0776165
H          -2.2276679     0.0671854     0.0421248
C           1.6528182    -0.2641125     0.1715232
C           3.1630703    -0.3820091     0.2401994
H           3.5528262     0.1505119     1.1146148
H           3.5928168     0.0948179    -0.6576063
O           3.6756536    -1.7052271     0.3677054
C           3.0879822    -2.6712229    -0.4839114
H           3.6366321    -3.6014351    -0.3129875
H           3.1834765    -2.3956570    -1.5471528
H           2.0254902    -2.8348072    -0.2640915
C          -0.5282686    -0.6200642     1.1827273
H          -1.1301538    -0.9892152     2.0091409
C           0.8598470    -0.7339208     1.2291414
H           1.3416401    -1.1963879     2.0875596
19
400_C8H10O_6-7-10-11 (60,) energy =    -386.0780736
C           0.9779555     0.3787304    -0.9253857
H           1.5698691     0.7699139    -1.7504257
C          -0.4106269     0.5329396    -0.9332973
H          -0.8935672     1.0435175    -1.7624634
C          -1.1750619     0.0239216     0.1165063
H          -2.2558194     0.1383212     0.1108837
C           1.6184968    -0.2719997     0.1333363
C           3.1302636    -0.4058374     0.1716281
H           3.5506757     0.2360860     0.9543614
H           3.5485141    -0.0694587    -0.7928555
O           3.6046332    -1.7076922     0.4825985
C           3.1925217    -2.7059347    -0.4335035
H           3.6695314    -3.6367027    -0.1154427
H           3.5192927    -2.4711866    -1.4598778
H           2.1030639    -2.8426726    -0.4386801
C          -0.5447817    -0.6373124     1.1747187
H          -1.1358327    -1.0381956     1.9942145
C           0.8415499    -0.7806681     1.1837717
H           1.3349544    -1.2980730     2.0026895
19
400_C8H10O_6-7-10-11 (75,) energy =    -386.0786183
C           0.9209324     0.4401177    -0.9146499
H           1.5044120     0.8523993    -1.7357194
C          -0.4612672     0.6364816    -0.8802274
H          -0.9476211     1.2001832    -1.6722287
C          -1.2166106     0.0993659     0.1628697
H          -2.2931700     0.2459272     0.1891747
C           1.5652093    -0.2816744     0.0954854
C           3.0755848    -0.4478071     0.0926085
H           3.5306826     0.2806606     0.7753587
H           3.4744115    -0.2447057    -0.9152344
O           3.5177744    -1.7110379     0.5605426
C           3.3208289    -2.7551694    -0.3757695
H           3.7122973    -3.6679395     0.0807955
H           3.8676424    -2.5607008    -1.3123645
H           2.2578829    -2.9010962    -0.6154117
C          -0.5823264    -0.6321386     1.1704244
H          -1.1654425    -1.0567976     1.9837031
C           0.7992259    -0.8186346     1.1382135
H           1.2967843    -1.3911972     1.9159373
19
400_C8H10O_6-7-10-11 (90,) energy =    -386.0775390
C           0.8711581     0.5052252    -0.9014857
H           1.4444119     0.9455858    -1.7154427
C          -0.5007260     0.7461050    -0.8138535
H          -0.9892368     1.3713959    -1.5568512
C          -1.2453725     0.1744023     0.2194240
H          -2.3147971     0.3560196     0.2864779
C           1.5175017    -0.2984085     0.0448128
C           3.0216219    -0.5073249    -0.0212090
H           3.5241783     0.2897777     0.5432217
H           3.3726141    -0.4332310    -1.0624562
O           3.4521759    -1.7201542     0.5743498
C           3.4890086    -2.8097509    -0.3284539
H           3.8387782    -3.6786459     0.2353083
H           4.1863137    -2.6190672    -1.1592285
H           2.4966780    -3.0335427    -0.7480752
C          -0.6089538    -0.6356908     1.1621803
H          -1.1831856    -1.0873756     1.9672336
C           0.7643077    -0.8684992     1.0772941
H           1.2643915    -1.5008889     1.8044374
19
400_C8H10O_6-7-10-11 (105,) energy =    -386.0759069
C           0.8211397     0.5783104    -0.8797301
H           1.3924609     1.0467826    -1.6794909
C          -0.5373796     0.8638608    -0.7448315
H          -1.0172588     1.5505369    -1.4375903
C          -1.2810418     0.2608136     0.2722267
H          -2.3407527     0.4782686     0.3766226
C           1.4565729    -0.3059585     0.0010252
C           2.9480914    -0.5672029    -0.1302633
H           3.5020675     0.2828080     0.2941245
H           3.2305089    -0.6298911    -1.1915670
O           3.3754499    -1.7202389     0.5781213
C           3.6514679    -2.8354873    -0.2468564
H           3.9664100    -3.6484032     0.4130256
H           4.4638330    -2.6223915    -0.9588061
H           2.7655992    -3.1620282    -0.8129389
C          -0.6549221    -0.6251652     1.1499407
H          -1.2274340    -1.1003804     1.9426099
C           0.7065982    -0.9057029     1.0169802
H           1.1994999    -1.5950372     1.6946472
19
400_C8H10O_6-7-10-11 (120,) energy =    -386.0749450
C           0.7939796     0.6470613    -0.8312970
H           1.3821354     1.1629742    -1.5887470
C          -0.5477901     0.9808350    -0.6552147
H          -0.9986839     1.7518981    -1.2747889
C          -1.3113445     0.3239865     0.3136400
H          -2.3578633     0.5824348     0.4520806
C           1.3924134    -0.3461211    -0.0446070
C           2.8601243    -0.6796568    -0.2523297
H           3.4737765     0.2066415    -0.0293666
H           3.0348653    -0.9229284    -1.3110473
O           3.2983584    -1.7390857     0.5834709
C           3.7906140    -2.8678363    -0.1106999
H           4.0660658    -3.6087957     0.6447718
H           4.6834056    -2.6262057    -0.7080875
H           3.0315970    -3.3064087    -0.7767431
C          -0.7204276    -0.6640683     1.1007772
H          -1.3063797    -1.1790781     1.8580012
C           0.6249872    -0.9973837     0.9238241
H           1.0925954    -1.7621229     1.5343922
19
400_C8H10O_6-7-10-11 (135,) energy =    -386.0753254
C           0.7681776     0.7316027    -0.7867621
H           1.3747106     1.2888704    -1.4987889
C          -0.5484016     1.1231138    -0.5482683
H          -0.9622486     1.9792878    -1.0749110
C          -1.3308121     0.4210396     0.3719258
H          -2.3558847     0.7274223     0.5630434
C           1.3187769    -0.3694436    -0.1182630
C           2.7393182    -0.7987045    -0.4334430
H           3.3965973     0.0831949    -0.4954456
H           2.7557432    -1.2715615    -1.4290974
O           3.2404533    -1.6998488     0.5394599
C           3.9161468    -2.8188196     0.0034126
H           4.2025503    -3.4509206     0.8483882
H           4.8275003    -2.5305633    -0.5439810
H           3.2719910    -3.4000617    -0.6746888
C          -0.7847371    -0.6706148     1.0474448
H          -1.3851323    -1.2177150     1.7700028
C           0.5326461    -1.0657384     0.8034874
H           0.9666165    -1.9070074     1.3328009
19
400_C8H10O_6-7-10-11 (150,) energy =    -386.0765801
C           0.7693416     0.7396933    -0.7471480
H           1.4066585     1.2993984    -1.4292966
C          -0.5204396     1.1962530    -0.4750510
H          -0.8822413     2.1062406    -0.9468243
C          -1.3387750     0.4922369     0.4105670
H          -2.3415546     0.8495127     0.6296106
C           1.2540800    -0.4296936    -0.1493330
C           2.6328680    -0.9428848    -0.5076317
H           3.3126483    -0.1021721    -0.7233498
H           2.5634750    -1.5370562    -1.4359092
O           3.1563061    -1.7482308     0.5339232
C           4.0341035    -2.7581812     0.0831956
H           4.3393210    -3.3308685     0.9630501
H           4.9347699    -2.3419013    -0.3960292
H           3.5424305    -3.4352932    -0.6333646
C          -0.8572126    -0.6684255     1.0184798
H          -1.4854409    -1.2179145     1.7150590
C           0.4304515    -1.1287868     0.7388814
H           0.8139788    -2.0237309     1.2171472
19
400_C8H10O_6-7-10-11 (165,) energy =    -386.0777122
C           0.7762924     0.7214913    -0.7394179
H           1.4339366     1.2564207    -1.4219858
C          -0.4835308     1.2423667    -0.4425195
H          -0.8018022     2.1775725    -0.8959489
C          -1.3266242     0.5699212     0.4440973
H          -2.3057554     0.9770631     0.6822712
C           1.2051340    -0.4807286    -0.1652423
C           2.5482381    -1.0624521    -0.5467510
H           3.2597907    -0.2559144    -0.7932656
H           2.4375841    -1.6735958    -1.4616351
O           3.0522490    -1.8677929     0.5019947
C           4.1173685    -2.6985934     0.0934408
H           4.4168553    -3.2877607     0.9641157
H           4.9843972    -2.1143676    -0.2552567
H           3.8134243    -3.3816521    -0.7163292
C          -0.9008519    -0.6246952     1.0278235
H          -1.5487083    -1.1509665     1.7243279
C           0.3558325    -1.1494151     0.7230162
H           0.6948294    -2.0726679     1.1807930
19
400_C8H10O_6-7-10-11 (180,) energy =    -386.0779789
C           0.7825210     0.6880399    -0.7471254
H           1.4503723     1.1991963    -1.4379091
C          -0.4457002     1.2639226    -0.4201178
H          -0.7291118     2.2175090    -0.8581252
C          -1.3018697     0.6221746     0.4765335
H          -2.2564164     1.0711128     0.7382948
C           1.1666806    -0.5378909    -0.1922724
C           2.4761866    -1.1742344    -0.6004316
H           3.2159069    -0.3912996    -0.8420344
H           2.3384584    -1.7700377    -1.5221799
O           2.9585631    -2.0073906     0.4361757
C           4.1818698    -2.6281859     0.1070992
H           4.4647024    -3.2534544     0.9578526
H           4.9785430    -1.8883857    -0.0737083
H           4.0907194    -3.2628293    -0.7897247
C          -0.9209740    -0.5971921     1.0397929
H          -1.5800097    -1.0998267     1.7432242
C           0.3036172    -1.1766379     0.7051352
H           0.6063212    -2.1202100     1.1467322
