19
400_C8H10O_0-6-7-10 (-165,) energy =    -386.0779603
C           0.6792247     0.5726311    -0.8913944
H           1.2647737     0.9753607    -1.7160416
C          -0.5713545     1.1172191    -0.6022540
H          -0.9529842     1.9408551    -1.2001755
C          -1.3340450     0.5995564     0.4472382
H          -2.3112047     1.0190798     0.6715680
C           1.1878727    -0.4899023    -0.1341587
C           2.5664099    -1.0316790    -0.4431913
H           3.3363159    -0.3207479    -0.0895464
H           2.7010859    -1.1179999    -1.5359803
O           2.7543683    -2.2869945     0.1766818
C           4.0503044    -2.8050750    -0.0278577
H           4.0985893    -3.7659153     0.4909041
H           4.8261000    -2.1371174     0.3807867
H           4.2614314    -2.9652859    -1.0976350
C          -0.8343170    -0.4621019     1.2020671
H          -1.4229452    -0.8733715     2.0182650
C           0.4211163    -1.0030054     0.9162795
H           0.8117790    -1.8303958     1.4982714
19
400_C8H10O_0-6-7-10 (-150,) energy =    -386.0780078
C           0.6555437     0.5200017    -0.9322470
H           1.2182974     0.8787795    -1.7918355
C          -0.6093995     1.0457240    -0.6652605
H          -1.0241314     1.8117111    -1.3154400
C          -1.3436759     0.5791742     0.4261658
H          -2.3317347     0.9821945     0.6323401
C           1.2064612    -0.4676105    -0.1083342
C           2.6010784    -0.9865465    -0.3745787
H           3.3433789    -0.3706580     0.1669129
H           2.8411415    -0.8947498    -1.4479295
O           2.7074592    -2.3341576     0.0442999
C           4.0146245    -2.8448760    -0.1010699
H           3.9979671    -3.8779697     0.2555722
H           4.7458850    -2.2717757     0.4923546
H           4.3420072    -2.8356121    -1.1534449
C          -0.8036949    -0.4130846     1.2471107
H          -1.3721338    -0.7859935     2.0953808
C           0.4648326    -0.9309784     0.9845815
H           0.8843485    -1.7084285     1.6146208
19
400_C8H10O_0-6-7-10 (-135,) energy =    -386.0778603
C           0.6467167     0.4657323    -0.9592260
H           1.1970558     0.7794799    -1.8436920
C          -0.6367349     0.9657184    -0.7281881
H          -1.0784242     1.6668526    -1.4315337
C          -1.3530619     0.5557228     0.3962854
H          -2.3542111     0.9386842     0.5759362
C           1.2324584    -0.4365351    -0.0661519
C           2.6364361    -0.9451852    -0.2921357
H           3.3392749    -0.4482019     0.4018111
H           2.9715108    -0.6971998    -1.3135770
O           2.6765790    -2.3468600    -0.0820011
C           3.9814585    -2.8723411    -0.1947540
H           3.9124157    -3.9473836    -0.0092575
H           4.6683522    -2.4241669     0.5421162
H           4.4025030    -2.7100718    -1.2004311
C          -0.7792236    -0.3550767     1.2874636
H          -1.3349544    -0.6833932     2.1620969
C           0.5055272    -0.8454172     1.0595095
H           0.9491610    -1.5622532     1.7440375
19
400_C8H10O_0-6-7-10 (-120,) energy =    -386.0775703
C           0.6433483     0.4046191    -0.9720411
H           1.1905408     0.6679033    -1.8745042
C          -0.6584198     0.8763506    -0.7864349
H          -1.1182276     1.5065944    -1.5431775
C          -1.3674077     0.5316826     0.3640064
H          -2.3813276     0.8948659     0.5099981
C           1.2530432    -0.4042056    -0.0088642
C           2.6625977    -0.9102115    -0.1948939
H           3.3125917    -0.5464393     0.6212224
H           3.0858550    -0.5248876    -1.1377397
O           2.6558451    -2.3302233    -0.1981319
C           3.9537926    -2.8731988    -0.3091797
H           3.8499159    -3.9612715    -0.2917513
H           4.6014476    -2.5612959     0.5270335
H           4.4430792    -2.5763523    -1.2514343
C          -0.7696909    -0.2858365     1.3276552
H          -1.3190894    -0.5610735     2.2242474
C           0.5315983    -0.7482028     1.1422728
H           0.9941490    -1.3913328     1.8862188
19
400_C8H10O_0-6-7-10 (-105,) energy =    -386.0773169
C           0.6502326     0.3206045    -0.9756452
H           1.2018092     0.5221189    -1.8911636
C          -0.6625601     0.7767913    -0.8397814
H          -1.1281729     1.3345438    -1.6480946
C          -1.3744040     0.5137895     0.3309221
H          -2.3960958     0.8682067     0.4395518
C           1.2678167    -0.3943125     0.0552482
C           2.6786561    -0.9076353    -0.0916123
H           3.2637795    -0.6907752     0.8191884
H           3.1852526    -0.4013614    -0.9304525
O           2.6433943    -2.3110415    -0.3139054
C           3.9352128    -2.8681848    -0.4259398
H           3.8095301    -3.9421356    -0.5869682
H           4.5306343    -2.7103954     0.4887632
H           4.4935271    -2.4424894    -1.2761178
C          -0.7688575    -0.2064273     1.3641178
H          -1.3190858    -0.4148978     2.2779791
C           0.5432649    -0.6558039     1.2253075
H           1.0131154    -1.2196396     2.0275631
19
400_C8H10O_0-6-7-10 (-90,) energy =    -386.0771819
C           0.6576806     0.2150037    -0.9725848
H           1.2151044     0.3393899    -1.8981643
C          -0.6573941     0.6726721    -0.8850193
H          -1.1211954     1.1560629    -1.7408775
C          -1.3747007     0.5112868     0.3019466
H          -2.3981626     0.8700708     0.3731824
C           1.2721605    -0.4061585     0.1206694
C           2.6828954    -0.9287062     0.0132391
H           3.1902200    -0.8682346     0.9911875
H           3.2663906    -0.3159192    -0.6948054
O           2.6465984    -2.2791201    -0.4304162
C           3.9372956    -2.8368982    -0.5514284
H           3.8116871    -3.8673204    -0.8943108
H           4.4735627    -2.8434205     0.4121222
H           4.5541894    -2.2891964    -1.2832024
C          -0.7721917    -0.1098748     1.3978745
H          -1.3254312    -0.2375108     2.3246509
C           0.5430855    -0.5653928     1.3048012
H           1.0111611    -1.0506988     2.1581722
19
400_C8H10O_0-6-7-10 (-75,) energy =    -386.0773018
C           1.1054786     0.4700850     0.7435139
H           2.0422256     0.8468032     1.1471991
C          -0.0270414     1.2827154     0.7342114
H           0.0262465     2.2909940     1.1365453
C          -1.2300879     0.7998161     0.2124335
H          -2.1149930     1.4308441     0.2086085
C           1.0543716    -0.8321493     0.2298833
C           2.2912055    -1.6956932     0.2306710
H           2.0203707    -2.7529732     0.0711510
H           2.8015809    -1.6351667     1.2077049
O           3.1694812    -1.2540233    -0.7960126
C           4.3663814    -2.0007500    -0.8345991
H           4.9768795    -1.5885376    -1.6423581
H           4.1779932    -3.0679273    -1.0381385
H           4.9271653    -1.9260586     0.1120065
C          -1.2916125    -0.4958003    -0.3015254
H          -2.2239954    -0.8774461    -0.7092745
C          -0.1532349    -1.3044098    -0.2936611
H          -0.2022458    -2.3127954    -0.6983392
19
400_C8H10O_0-6-7-10 (-60,) energy =    -386.0775762
C           1.1365380     0.4641567     0.6107645
H           2.1085933     0.8460087     0.9113182
C           0.0161051     1.2915339     0.6501679
H           0.1134705     2.3185820     0.9924605
C          -1.2317781     0.8016462     0.2538483
H          -2.1064556     1.4458738     0.2878425
C           1.0287668    -0.8611580     0.1681358
C           2.2473618    -1.7512114     0.1477490
H           1.9762781    -2.7626036    -0.1990147
H           2.6594546    -1.8608736     1.1670268
O           3.2318273    -1.1827362    -0.7031688
C           4.4284251    -1.9309492    -0.7152830
H           5.1232641    -1.4158233    -1.3837449
H           4.2675001    -2.9556939    -1.0886229
H           4.8797020    -1.9982566     0.2886036
C          -1.3489650    -0.5162993    -0.1868193
H          -2.3148088    -0.9035762    -0.5005945
C          -0.2217976    -1.3403773    -0.2319198
H          -0.3151494    -2.3656584    -0.5830035
19
400_C8H10O_0-6-7-10 (-45,) energy =    -386.0778859
C           1.1620487     0.4707587     0.4757130
H           2.1563286     0.8588010     0.6754586
C           0.0477313     1.3028742     0.5706775
H           0.1745491     2.3435283     0.8580546
C          -1.2288118     0.8031541     0.2994186
H          -2.0971132     1.4523590     0.3756807
C           1.0166667    -0.8707298     0.0990392
C           2.2200809    -1.7815955     0.0413139
H           1.9658642    -2.7153908    -0.4884360
H           2.5284126    -2.0706365     1.0630888
O           3.2925100    -1.1184141    -0.6065749
C           4.4767391    -1.8858838    -0.6134843
H           5.2415408    -1.2928029    -1.1216313
H           4.3447542    -2.8370286    -1.1546647
H           4.8210434    -2.1163800     0.4082573
C          -1.3819080    -0.5318137    -0.0749896
H          -2.3699900    -0.9274832    -0.2952558
C          -0.2629417    -1.3610734    -0.1786377
H          -0.3861337    -2.3987291    -0.4815717
19
400_C8H10O_0-6-7-10 (-30,) energy =    -386.0780135
C           1.1712681     0.4890827     0.3594652
H           2.1741930     0.8861806     0.4760219
C           0.0586710     1.3200068     0.4959886
H           0.1988569     2.3725653     0.7288400
C          -1.2294291     0.8059136     0.3345983
H          -2.0948447     1.4545534     0.4418981
C           1.0083991    -0.8663539     0.0517318
C           2.2020256    -1.7884772    -0.0516883
H           1.9815543    -2.6167494    -0.7471625
H           2.4080050    -2.2511788     0.9316924
O           3.3399284    -1.0674108    -0.4842250
C           4.5045365    -1.8630267    -0.5189434
H           5.3234930    -1.2203742    -0.8521824
H           4.4026745    -2.7054363    -1.2222939
H           4.7502769    -2.2716490     0.4750037
C          -1.3986672    -0.5453786     0.0280839
H          -2.3966761    -0.9540202    -0.1078226
C          -0.2849127    -1.3733579    -0.1173712
H          -0.4227306    -2.4234071    -0.3680476
19
400_C8H10O_0-6-7-10 (-15,) energy =    -386.0779512
C           1.1719128     0.5040368     0.2605395
H           2.1757615     0.9114009     0.3068913
C           0.0594119     1.3318400     0.4271304
H           0.2031847     2.3941092     0.6080322
C          -1.2299976     0.8031520     0.3618385
H          -2.0943870     1.4489841     0.4917914
C           1.0044026    -0.8631640     0.0220442
C           2.1908709    -1.7893666    -0.1335554
H           2.0174435    -2.4852455    -0.9735632
H           2.2991322    -2.4150835     0.7719336
O           3.3733536    -1.0469096    -0.3465798
C           4.5193175    -1.8644647    -0.4358201
H           5.3752479    -1.2031171    -0.5928146
H           4.4526157    -2.5696239    -1.2801966
H           4.6790988    -2.4453592     0.4872312
C          -1.4031131    -0.5623691     0.1236120
H          -2.4032043    -0.9842082     0.0652479
C          -0.2924096    -1.3872933    -0.0486031
H          -0.4347154    -2.4490975    -0.2422040
19
400_C8H10O_0-6-7-10 (0,) energy =    -386.0778829
C           1.1831843     0.5073894     0.1699362
H           2.1843375     0.9231181     0.1553967
C           0.0715958     1.3339413     0.3525978
H           0.2142986     2.4039953     0.4808646
C          -1.2142674     0.7942496     0.3707745
H          -2.0775272     1.4390156     0.5129109
C           1.0174284    -0.8700452     0.0034371
C           2.1987172    -1.7951828    -0.1968137
H           2.0909373    -2.3380988    -1.1535474
H           2.2114375    -2.5642501     0.5970160
O           3.4077464    -1.0669924    -0.1855041
C           4.5387555    -1.8882287    -0.3741095
H           5.4167839    -1.2377381    -0.3507013
H           4.5058903    -2.4110709    -1.3438145
H           4.6314336    -2.6439916     0.4227728
C          -1.3854083    -0.5825887     0.2050495
H          -2.3830052    -1.0141008     0.2175934
C          -0.2764258    -1.4069102     0.0228909
H          -0.4173513    -2.4788988    -0.1052974
19
400_C8H10O_0-6-7-10 (15,) energy =    -386.0779512
C           1.1809637     0.5112782     0.0796935
H           2.1771573     0.9325587     0.0027251
C           0.0724303     1.3370612     0.2794622
H           0.2110984     2.4126259     0.3552587
C          -1.2064842     0.7892370     0.3824183
H          -2.0678095     1.4335363     0.5378332
C           1.0205780    -0.8741972    -0.0147642
C           2.1990093    -1.7912427    -0.2598916
H           2.1724793    -2.1657804    -1.3001760
H           2.1265747    -2.6795880     0.3924292
O           3.4135442    -1.1087068    -0.0277114
C           4.5450213    -1.9047686    -0.3027212
H           5.4269575    -1.2919313    -0.0995907
H           4.5688715    -2.2303155    -1.3555487
H           4.5778556    -2.8018023     0.3367470
C          -1.3724199    -0.5946276     0.2888327
H          -2.3635910    -1.0328188     0.3731075
C          -0.2648692    -1.4190940     0.0954193
H          -0.4004257    -2.4973912     0.0316582
19
400_C8H10O_0-6-7-10 (30,) energy =    -386.0780134
C           1.1702579     0.5153865    -0.0211555
H           2.1565974     0.9430705    -0.1673418
C           0.0664836     1.3379795     0.2067187
H           0.1956777     2.4171052     0.2300177
C          -1.1987156     0.7815399     0.4046690
H          -2.0573387     1.4239688     0.5814307
C           1.0222926    -0.8759744    -0.0459971
C           2.2004900    -1.7767663    -0.3394200
H           2.2640681    -1.9732064    -1.4261275
H           2.0584384    -2.7568807     0.1479295
O           3.4000017    -1.1717072     0.1043582
C           4.5429564    -1.9324426    -0.2204013
H           5.4115429    -1.3832722     0.1520354
H           4.6456850    -2.0714371    -1.3091713
H           4.5194045    -2.9273171     0.2533070
C          -1.3529180    -0.6056295     0.3806124
H          -2.3320344    -1.0492623     0.5418400
C          -0.2468208    -1.4277571     0.1619004
H          -0.3711990    -2.5089346     0.1560642
19
400_C8H10O_0-6-7-10 (45,) energy =    -386.0778859
C           1.1416211     0.5334667    -0.1336622
H           2.1073950     0.9745438    -0.3612666
C           0.0408968     1.3451366     0.1360671
H           0.1482469     2.4264439     0.1065397
C          -1.1970432     0.7734678     0.4420216
H          -2.0550580     1.4072532     0.6502527
C           1.0222323    -0.8617303    -0.0921126
C           2.2046719    -1.7388328    -0.4293527
H           2.3672555    -1.7552023    -1.5229469
H           2.0059766    -2.7800777    -0.1234824
O           3.3670594    -1.2445880     0.2142601
C           4.5262305    -1.9711358    -0.1320151
H           5.3635404    -1.5149032     0.4024407
H           4.7265816    -1.9301227    -1.2154409
H           4.4488076    -3.0302038     0.1635358
C          -1.3242088    -0.6149878     0.4840419
H          -2.2811163    -1.0688307     0.7284535
C          -0.2176786    -1.4260318     0.2227276
H          -0.3190633    -2.5083438     0.2673273
19
400_C8H10O_0-6-7-10 (60,) energy =    -386.0775761
C           1.1017559     0.5545241    -0.2636375
H           2.0325395     1.0136127    -0.5859997
C           0.0029913     1.3488835     0.0575801
H           0.0745902     2.4303573    -0.0246373
C          -1.1904464     0.7570044     0.4814551
H          -2.0485952     1.3764295     0.7287101
C           1.0272057    -0.8409823    -0.1590241
C           2.2195123    -1.6896495    -0.5274542
H           2.4895910    -1.5324918    -1.5872358
H           1.9768675    -2.7596177    -0.4137061
O           3.3199608    -1.3402951     0.2991997
C           4.4924587    -2.0492936    -0.0390261
H           5.2803116    -1.7101765     0.6386783
H           4.8043211    -1.8532252    -1.0783851
H           4.3625858    -3.1374777     0.0808382
C          -1.2744179    -0.6310480     0.5872698
H          -2.1972832    -1.0989139     0.9200147
C          -0.1681748    -1.4235718     0.2714342
H          -0.2345067    -2.5055101     0.3618973
19
400_C8H10O_0-6-7-10 (75,) energy =    -386.0773018
C           1.0565383     0.5922139    -0.3822965
H           1.9382160     1.0730321    -0.7992214
C          -0.0486272     1.3588131    -0.0162646
H          -0.0299765     2.4368036    -0.1538609
C          -1.1804803     0.7413539     0.5226266
H          -2.0444767     1.3375337     0.8043017
C           1.0490883    -0.7982583    -0.2126595
C           2.2578145    -1.6146396    -0.5973100
H           2.6345751    -1.3009373    -1.5864463
H           1.9902024    -2.6818181    -0.6756724
O           3.2734493    -1.4340781     0.3806575
C           4.4505894    -2.1469766     0.0679549
H           5.1709877    -1.9438642     0.8647446
H           4.8813865    -1.8253105    -0.8948859
H           4.2710845    -3.2337091     0.0172016
C          -1.1981277    -0.6429617     0.6956896
H          -2.0749804    -1.1295998     1.1146983
C          -0.0868614    -1.4058958     0.3312485
H          -0.1010269    -2.4845079     0.4705426
19
400_C8H10O_0-6-7-10 (90,) energy =    -386.0771819
C           0.9946897     0.6325585    -0.4905109
H           1.8220311     1.1382828    -0.9830987
C          -0.1276405     1.3592674    -0.0919850
H          -0.1746045     2.4290494    -0.2780560
C          -1.1891914     0.7114367     0.5427697
H          -2.0658379     1.2750986     0.8510918
C           1.0708058    -0.7462098    -0.2627573
C           2.2985819    -1.5241253    -0.6655468
H           2.7680769    -1.0675232    -1.5534654
H           2.0259350    -2.5582923    -0.9368799
O           3.2191873    -1.5348369     0.4179615
C           4.3982225    -2.2469639     0.1107243
H           5.0406690    -2.2022183     0.9941156
H           4.9346227    -1.8031663    -0.7444591
H           4.1895688    -3.3034705    -0.1265995
C          -1.1221538    -0.6633901     0.7776824
H          -1.9458951    -1.1729620     1.2706885
C           0.0023573    -1.3851985     0.3768873
H           0.0546192    -2.4556744     0.5618491
19
400_C8H10O_0-6-7-10 (105,) energy =    -386.0773168
C           0.9347724     0.6730093    -0.5708439
H           1.7127286     1.1959726    -1.1224822
C          -0.2137207     1.3585964    -0.1696711
H          -0.3282019     2.4118007    -0.4123847
C          -1.2101269     0.6917708     0.5436937
H          -2.1053367     1.2227293     0.8566662
C           1.0975565    -0.6832480    -0.2720349
C           2.3441230    -1.4257217    -0.6847265
H           2.8938717    -0.8548523    -1.4518648
H           2.0812009    -2.4003007    -1.1319067
O           3.1647243    -1.6302593     0.4577131
C           4.3363814    -2.3554702     0.1526684
H           4.8962200    -2.4691639     1.0847384
H           4.9673855    -1.8265281    -0.5806873
H           4.1061619    -3.3554683    -0.2511796
C          -1.0536322    -0.6618297     0.8539071
H          -1.8265056    -1.1858042     1.4101976
C           0.0926438    -1.3427723     0.4474127
H           0.2162185    -2.3949713     0.6921687
19
400_C8H10O_0-6-7-10 (120,) energy =    -386.0775703
C           0.8889393     0.6952723    -0.6346633
H           1.6254526     1.2266842    -1.2332912
C          -0.2888839     1.3403339    -0.2497302
H          -0.4655085     2.3693391    -0.5518622
C          -1.2307568     0.6664866     0.5273092
H          -2.1468792     1.1663738     0.8308426
C           1.1328538    -0.6287419    -0.2588857
C           2.3975359    -1.3379855    -0.6777530
H           3.0168499    -0.6760360    -1.3061409
H           2.1557241    -2.2265856    -1.2883171
O           3.1167188    -1.7391455     0.4789955
C           4.2838141    -2.4662250     0.1606819
H           4.7613321    -2.7378748     1.1057580
H           4.9901207    -1.8666307    -0.4367568
H           4.0527950    -3.3860042    -0.4019595
C          -0.9902213    -0.6542264     0.9171959
H          -1.7190593    -1.1825031     1.5264720
C           0.1824511    -1.2966166     0.5250026
H           0.3747784    -2.3202406     0.8352680
19
400_C8H10O_0-6-7-10 (135,) energy =    -386.0778602
C           0.8423993     0.7049098    -0.6828752
H           1.5448286     1.2352548    -1.3223487
C          -0.3639775     1.3112533    -0.3256432
H          -0.5958321     2.3087752    -0.6897287
C          -1.2618406     0.6420092     0.5060307
H          -2.1989441     1.1134191     0.7903646
C           1.1590410    -0.5777536    -0.2254382
C           2.4437001    -1.2518592    -0.6451773
H           3.1215002    -0.5199880    -1.1164078
H           2.2373446    -2.0282462    -1.4049026
O           3.0618183    -1.8473912     0.4834252
C           4.2269282    -2.5674156     0.1433678
H           4.6239552    -2.9924714     1.0688883
H           4.9933492    -1.9162346    -0.3078024
H           4.0109437    -3.3853356    -0.5637552
C          -0.9473183    -0.6355550     0.9771139
H          -1.6398134    -1.1597467     1.6307885
C           0.2531830    -1.2422937     0.6115402
H           0.5053817    -2.2300454     0.9856789
19
400_C8H10O_0-6-7-10 (150,) energy =    -386.0780079
C           0.8079420     0.6936022    -0.7332392
H           1.4804903     1.2114954    -1.4142494
C          -0.4212904     1.2674035    -0.4053798
H          -0.7008623     2.2265176    -0.8336376
C          -1.2822254     0.6166435     0.4796999
H          -2.2371772     1.0644329     0.7419100
C           1.1871388    -0.5395029    -0.1915854
C           2.4952135    -1.1775473    -0.6002172
H           3.2211822    -0.3995547    -0.8931893
H           2.3425667    -1.8157796    -1.4906652
O           3.0079428    -1.9602179     0.4615612
C           4.1856547    -2.6508285     0.1055944
H           4.4961305    -3.2292179     0.9795642
H           4.9973003    -1.9584318    -0.1711258
H           4.0167414    -3.3389008    -0.7390129
C          -0.9058588    -0.6098314     1.0312134
H          -1.5684041    -1.1195883     1.7261378
C           0.3190899    -1.1868843     0.6952973
H           0.6192446    -2.1353316     1.1285743
19
400_C8H10O_0-6-7-10 (165,) energy =    -386.0779603
C           0.7697868     0.6640591    -0.7835484
H           1.4145197     1.1541911    -1.5110000
C          -0.4720722     1.2191202    -0.4772621
H          -0.7895874     2.1357551    -0.9676716
C          -1.3009388     0.6028515     0.4631005
H          -2.2672732     1.0363635     0.7068560
C           1.1980299    -0.5152842    -0.1614957
C           2.5314231    -1.1185417    -0.5456660
H           3.2929044    -0.3235866    -0.6349468
H           2.4555416    -1.5907040    -1.5429491
O           2.9325392    -2.0794132     0.4088693
C           4.1404514    -2.7193357     0.0608528
H           4.3610357    -3.4421424     0.8505005
H           4.9751753    -2.0033673    -0.0118912
H           4.0578820    -3.2520638    -0.9006069
C          -0.8775906    -0.5697435     1.0895284
H          -1.5147172    -1.0539943     1.8253202
C           0.3635796    -1.1287929     0.7776104
H           0.6980482    -2.0381022     1.2646340
19
400_C8H10O_0-6-7-10 (180,) energy =    -386.0778827
C           0.7279622     0.6185621    -0.8394147
H           1.3430649     1.0674286    -1.6176366
C          -0.5181438     1.1677183    -0.5427034
H          -0.8682302     2.0396040    -1.0893462
C          -1.3142415     0.5983547     0.4546035
H          -2.2862627     1.0250026     0.6875903
C           1.1969281    -0.5050089    -0.1463054
C           2.5553765    -1.0745282    -0.4950399
H           3.3321159    -0.2997698    -0.3599638
H           2.5803099    -1.3562820    -1.5635633
O           2.8448070    -2.1973606     0.3095664
C           4.1000792    -2.7685513     0.0143937
H           4.2295371    -3.6242888     0.6818931
H           4.9228151    -2.0548185     0.1831757
H           4.1539887    -3.1171321    -1.0298037
C          -0.8521999    -0.5201802     1.1477060
H          -1.4646440    -0.9698335     1.9252398
C           0.3970931    -1.0705844     0.8500655
H           0.7597792    -1.9400783     1.3865272
