24
138_C13H10O_6-7-18-16 (-165,) energy =    -576.6317883
C           0.7372115     0.4400578     1.0461821
H           1.4942826     1.1527867     1.3580138
C          -0.3610300     0.1936022     1.8712149
H          -0.4437789     0.7044575     2.8266966
C          -1.3516983    -0.7029060     1.4681648
H          -2.2015191    -0.9015799     2.1158158
C           0.8464984    -0.1988387    -0.1985566
C           1.9580558     0.0816103    -1.1688726
C          -1.2545953    -1.3371338     0.2259903
H          -2.0289735    -2.0292091    -0.0936087
C           6.0399745     0.7426056     0.0269290
H           7.0783054     0.9024145     0.3054644
C           5.5892806     1.1172876    -1.2429631
H           6.2771136     1.5671170    -1.9538307
C          -0.1714130    -1.0747307    -0.6077019
H          -0.0940790    -1.5385501    -1.5858261
C           4.2619910     0.9057391    -1.6003682
H           3.8974610     1.1719474    -2.5870202
C           3.3560971     0.3405155    -0.6868266
C           3.8219775    -0.0488059     0.5790414
H           3.1516214    -0.5338890     1.2802344
C           5.1571777     0.1520005     0.9317017
H           5.5081906    -0.1600357     1.9115552
O           1.7217288     0.0642361    -2.3723251
24
138_C13H10O_6-7-18-16 (-150,) energy =    -576.6320885
C           0.8107807     0.3765597     1.0176129
H           1.6268208     1.0253053     1.3189679
C          -0.3070791     0.2427783     1.8421542
H          -0.3478307     0.7785732     2.7866056
C          -1.3703095    -0.5732429     1.4532140
H          -2.2366733    -0.6829522     2.1001934
C           0.8685921    -0.2971693    -0.2121734
C           2.0066421    -0.1425240    -1.1780969
C          -1.3234469    -1.2432755     0.2265989
H          -2.1529197    -1.8743045    -0.0809176
C           6.0025528     0.8545315     0.0681892
H           7.0182687     1.1043435     0.3632926
C           5.5077007     1.2808766    -1.1681205
H           6.1377301     1.8630547    -1.8351393
C          -0.2177390    -1.0960699    -0.6048574
H          -0.1720295    -1.5907484    -1.5696645
C           4.2101063     0.9527140    -1.5492916
H           3.8176349     1.2550986    -2.5149054
C           3.3796700     0.2165567    -0.6892212
C           3.8846174    -0.2097356     0.5486489
H           3.2643354    -0.8064601     1.2100915
C           5.1932619     0.1014437     0.9200970
H           5.5803100    -0.2460744     1.8741140
O           1.8125854    -0.2991124    -2.3788091
24
138_C13H10O_6-7-18-16 (-135,) energy =    -576.6311216
C           0.8770436     0.3171292     0.9986812
H           1.7423888     0.8973143     1.3014122
C          -0.2582524     0.2923968     1.8096444
H          -0.2653810     0.8462031     2.7444834
C          -1.3815437    -0.4381083     1.4195992
H          -2.2628699    -0.4609332     2.0552218
C           0.8934084    -0.3835604    -0.2171565
C           2.0575968    -0.3548524    -1.1620703
C          -1.3749184    -1.1361282     0.2074028
H          -2.2502889    -1.7021110    -0.0994882
C           5.9583945     0.9544008     0.0979767
H           6.9476731     1.2872675     0.4005649
C           5.3978101     1.4211133    -1.0942386
H           5.9487740     2.1189893    -1.7189178
C          -0.2489435    -1.1018560    -0.6082517
H          -0.2275960    -1.6233742    -1.5596171
C           4.1344411     0.9863675    -1.4876999
H           3.6980214     1.3214269    -2.4236033
C           3.4077186     0.0974141    -0.6820772
C           3.9709740    -0.3577089     0.5188825
H           3.4192069    -1.0534701     1.1446190
C           5.2477241     0.0582961     0.8985359
H           5.6853857    -0.3149736     1.8204537
O           1.9044284    -0.6509338    -2.3415354
24
138_C13H10O_6-7-18-16 (-120,) energy =    -576.6292252
C           0.9262845     0.2777559     0.9788370
H           1.8266917     0.7984108     1.2874537
C          -0.2239211     0.3552965     1.7648229
H          -0.2107096     0.9317003     2.6858080
C          -1.3885527    -0.3030989     1.3674544
H          -2.2826966    -0.2440196     1.9825333
C           0.9170356    -0.4567922    -0.2167581
C           2.1059569    -0.5478141    -1.1239908
C          -1.4064339    -1.0358999     0.1757801
H          -2.3137066    -1.5468614    -0.1349645
C           5.9155956     1.0306613     0.1165108
H           6.8791218     1.4324057     0.4183951
C           5.2696131     1.5366494    -1.0141616
H           5.7279070     2.3348960    -1.5917545
C          -0.2632518    -1.1083743    -0.6125902
H          -0.2557288    -1.6628897    -1.5453338
C           4.0383909     1.0149494    -1.4080445
H           3.5402624     1.3874386    -2.2984084
C           3.4351396    -0.0083486    -0.6648268
C           4.0773268    -0.4984284     0.4803719
H           3.6103545    -1.2862838     1.0655886
C           5.3214221     0.0081875     0.8587441
H           5.8232289    -0.3915877     1.7358358
O           1.9941149    -0.9906436    -2.2601363
24
138_C13H10O_6-7-18-16 (-105,) energy =    -576.6272439
C           0.9445222     0.2809024     0.9498150
H           1.8625538     0.7693475     1.2598807
C          -0.2199975     0.4463315     1.6999890
H          -0.2035475     1.0620990     2.5950458
C          -1.4033683    -0.1766775     1.3002306
H          -2.3096304    -0.0476287     1.8862005
C           0.9310310    -0.5092740    -0.2094710
C           2.1444987    -0.7065457    -1.0627358
C          -1.4246017    -0.9657660     0.1448963
H          -2.3464694    -1.4496132    -0.1662879
C           5.8904490     1.0719962     0.1168612
H           6.8376574     1.5199046     0.4049232
C           5.1377984     1.6310417    -0.9181745
H           5.4965181     2.5163550    -1.4363489
C          -0.2656179    -1.1298982    -0.6056014
H          -0.2572021    -1.7337656    -1.5072246
C           3.9249132     1.0531762    -1.2935129
H           3.3455851     1.4783609    -2.1084858
C           3.4532558    -0.0869866    -0.6313874
C           4.2017895    -0.6340410     0.4181867
H           3.8345133    -1.5122746     0.9431064
C           5.4226419    -0.0631689     0.7813809
H           6.0054881    -0.5030726     1.5862171
O           2.0810948    -1.3127371    -2.1232504
24
138_C13H10O_6-7-18-16 (-90,) energy =    -576.6264982
C           0.9139108     0.3427830     0.9063817
H           1.8288097     0.8407431     1.2113354
C          -0.2723901     0.5738444     1.6029100
H          -0.2785059     1.2532260     2.4507961
C          -1.4486625    -0.0673176     1.2104948
H          -2.3724378     0.1134433     1.7539132
C           0.9295230    -0.5333274    -0.1891588
C           2.1750448    -0.8153321    -0.9663510
C          -1.4404369    -0.9425888     0.1186975
H          -2.3568961    -1.4409851    -0.1853939
C           5.9024046     1.0783596     0.0951623
H           6.8496552     1.5464190     0.3489540
C           5.0232969     1.7100679    -0.7864085
H           5.2849197     2.6702688    -1.2229715
C          -0.2589747    -1.1743704    -0.5768857
H          -0.2260884    -1.8486698    -1.4265973
C           3.8063453     1.1099357    -1.1130837
H           3.1253766     1.6015544    -1.8030946
C           3.4615349    -0.1290652    -0.5599310
C           4.3466865    -0.7609096     0.3217494
H           4.0866044    -1.7265735     0.7474730
C           5.5620811    -0.1577339     0.6480134
H           6.2442600    -0.6556337     1.3319337
O           2.1741801    -1.5889899    -1.9128432
24
138_C13H10O_6-7-18-16 (-75,) energy =    -576.6276146
C           0.8713475     0.4015934     0.8894922
H           1.7766770     0.9086853     1.2074236
C          -0.3439004     0.6891212     1.5113993
H          -0.3817782     1.4234204     2.3113575
C          -1.5078352     0.0330348     1.1074322
H          -2.4542468     0.2585049     1.5919841
C           0.9294661    -0.5485836    -0.1410667
C           2.2097075    -0.9096247    -0.8252191
C          -1.4574696    -0.9161961     0.0805276
H          -2.3638712    -1.4272331    -0.2326142
C           5.9294415     1.0822527     0.0468803
H           6.8797604     1.5701729     0.2460514
C           4.9280144     1.7600059    -0.6503181
H           5.0985824     2.7736600    -1.0029905
C          -0.2466836    -1.2061328    -0.5386483
H          -0.1807995    -1.9411587    -1.3343332
C           3.7045060     1.1363299    -0.9001641
H           2.9255480     1.6665850    -1.4422562
C           3.4763453    -0.1729269    -0.4575466
C           4.4951800    -0.8583169     0.2164520
H           4.3320706    -1.8861035     0.5285689
C           5.7100718    -0.2270931     0.4810721
H           6.4901819    -0.7615300     1.0165401
O           2.2604343    -1.8264958    -1.6333091
24
138_C13H10O_6-7-18-16 (-60,) energy =    -576.6297732
C           0.8469274     0.4137344     0.9114691
H           1.7456503     0.9014553     1.2745090
C          -0.3945382     0.7582937     1.4469864
H          -0.4570575     1.5190200     2.2202976
C          -1.5521817     0.1250361     0.9923576
H          -2.5188817     0.3968002     1.4082173
C           0.9391676    -0.5740907    -0.0808706
C           2.2461989    -1.0150526    -0.6639867
C          -1.4683747    -0.8622946     0.0046043
H          -2.3694625    -1.3571347    -0.3474744
C           5.9386045     1.0984930    -0.0191938
H           6.8836650     1.6164477     0.1206497
C           4.8396365     1.7794280    -0.5451807
H           4.9293273     2.8250398    -0.8271500
C          -0.2310594    -1.2123329    -0.5248126
H          -0.1400461    -1.9817284    -1.2846601
C           3.6225777     1.1174203    -0.7142859
H           2.7680359     1.6493489    -1.1241755
C           3.4987891    -0.2345437    -0.3650687
C           4.6180761    -0.9218487     0.1251306
H           4.5306797    -1.9806578     0.3500116
C           5.8249963    -0.2530897     0.3178077
H           6.6819269    -0.7884984     0.7176070
O           2.3216339    -2.0385357    -1.3321669
24
138_C13H10O_6-7-18-16 (-45,) energy =    -576.6315043
C           0.8252298     0.4031327     0.9677410
H           1.7149849     0.8564026     1.3923116
C          -0.4353833     0.8000493     1.4154063
H          -0.5193794     1.5684154     2.1791002
C          -1.5838724     0.2094402     0.8864176
H          -2.5652478     0.5240334     1.2316600
C           0.9467559    -0.5979023    -0.0082949
C           2.2711117    -1.1111982    -0.4888018
C          -1.4713275    -0.7919537    -0.0837042
H          -2.3646723    -1.2556418    -0.4932260
C           5.9313724     1.1143125    -0.1003986
H           6.8674316     1.6607333    -0.0209406
C           4.7626396     1.7813593    -0.4706725
H           4.7883763     2.8447936    -0.6924906
C          -0.2150549    -1.1986820    -0.5207171
H          -0.1044721    -1.9851524    -1.2602168
C           3.5576644     1.0830877    -0.5607940
H           2.6510388     1.6033804    -0.8558220
C           3.5155742    -0.2930028    -0.2919307
C           4.7024751    -0.9618312     0.0438791
H           4.6685348    -2.0341252     0.2096492
C           5.8988693    -0.2591820     0.1586083
H           6.8094348    -0.7820603     0.4383501
O           2.3525207    -2.2167518    -1.0117732
24
138_C13H10O_6-7-18-16 (-30,) energy =    -576.6321323
C           0.7986902     0.3909034     1.0337690
H           1.6684709     0.8196518     1.5210640
C          -0.4783483     0.8248054     1.3919326
H          -0.5934223     1.5983278     2.1463604
C          -1.6036620     0.2642901     0.7860032
H          -2.5972869     0.6093568     1.0595366
C           0.9603532    -0.6196306     0.0733813
C           2.2987071    -1.1849470    -0.3036765
C          -1.4517561    -0.7476705    -0.1670210
H          -2.3268400    -1.1901562    -0.6352308
C           5.9313256     1.1188538    -0.1963911
H           6.8595514     1.6839177    -0.1795846
C           4.7182331     1.7744661    -0.4114200
H           4.7003594     2.8486795    -0.5741361
C          -0.1797976    -1.1951632    -0.5104244
H          -0.0431437    -1.9950641    -1.2309738
C           3.5243014     1.0521080    -0.4221565
H           2.5862384     1.5658111    -0.6064704
C           3.5357777    -0.3380990    -0.2303430
C           4.7645078    -0.9913038    -0.0415278
H           4.7631932    -2.0699756     0.0775321
C           5.9521731    -0.2670505    -0.0112924
H           6.8962336    -0.7805133     0.1496181
O           2.3821909    -2.3505828    -0.6757041
24
138_C13H10O_6-7-18-16 (-15,) energy =    -576.6315501
C           0.7518653     0.3979758     1.1011041
H           1.5897990     0.8143933     1.6514557
C          -0.5412156     0.8530556     1.3630183
H          -0.6988273     1.6320588     2.1040189
C          -1.6278322     0.3063822     0.6789481
H          -2.6332961     0.6686208     0.8762458
C           0.9680058    -0.6210782     0.1608083
C           2.3208900    -1.2159372    -0.1104380
C          -1.4220268    -0.7154574    -0.2526024
H          -2.2670772    -1.1493297    -0.7802609
C           5.9331327     1.1198852    -0.2918576
H           6.8564201     1.6912727    -0.3399626
C           4.7023872     1.7752372    -0.3446412
H           4.6642211     2.8566921    -0.4431092
C          -0.1353705    -1.1868218    -0.4972567
H           0.0376795    -1.9979452    -1.1972693
C           3.5155617     1.0444710    -0.2759304
H           2.5651066     1.5621502    -0.3438026
C           3.5492031    -0.3545979    -0.1645137
C           4.7947069    -1.0043321    -0.1256349
H           4.8060839    -2.0866249    -0.0505620
C           5.9767108    -0.2737951    -0.1835829
H           6.9337259    -0.7871578    -0.1465686
O           2.4093886    -2.4192545    -0.3313505
24
138_C13H10O_6-7-18-16 (0,) energy =    -576.6299148
C           0.5145638     0.8402460    -0.2534008
H           1.1737942     1.5698142    -0.7139536
C          -0.7589574     1.2290944     0.1649491
H          -1.0736255     2.2621889     0.0444980
C          -1.6263409     0.2936485     0.7306152
H          -2.6137531     0.5995629     1.0658992
C           0.9273889    -0.4943729    -0.1228587
C           2.2511838    -1.0026216    -0.6253821
C          -1.2269297    -1.0400193     0.8532451
H          -1.9034885    -1.7739017     1.2827573
C           6.0099536     0.9468146     0.1648150
H           6.9686368     1.4249325     0.3481032
C           4.8434758     1.4910930     0.7030327
H           4.8910906     2.3907301     1.3105387
C           0.0337579    -1.4344627     0.4127627
H           0.3440799    -2.4726710     0.4759369
C           3.6110933     0.8800360     0.4687084
H           2.7181569     1.2966491     0.9199829
C           3.5333998    -0.2892091    -0.3047425
C           4.7161190    -0.8273036    -0.8419151
H           4.6413241    -1.7276302    -1.4423935
C           5.9434304    -0.2176645    -0.6069721
H           6.8502366    -0.6458667    -1.0254843
O           2.2787370    -2.0649825    -1.2373404
24
138_C13H10O_6-7-18-16 (15,) energy =    -576.6315501
C           0.5830156     0.8005479    -0.2194426
H           1.2970819     1.5005965    -0.6418816
C          -0.7005422     1.2380965     0.1103070
H          -0.9713458     2.2792429    -0.0428350
C          -1.6339462     0.3405121     0.6305061
H          -2.6299637     0.6844940     0.8964456
C           0.9400867    -0.5453503    -0.0449332
C           2.2742013    -1.1017656    -0.4551765
C          -1.2892118    -1.0038045     0.7987546
H          -2.0167333    -1.7068758     1.1952116
C           5.9833392     1.0154182     0.0895590
H           6.9299315     1.5340979     0.2167920
C           4.8473804     1.4590332     0.7676424
H           4.9082922     2.3175620     1.4309078
C          -0.0169862    -1.4463204     0.4478249
H           0.2569098    -2.4918032     0.5469993
C           3.6292218     0.7991959     0.6005360
H           2.7591781     1.1375039     1.1523604
C           3.5384626    -0.3212023    -0.2405830
C           4.6923692    -0.7662983    -0.9079572
H           4.6108757    -1.6397437    -1.5463770
C           5.9033473    -0.1012103    -0.7487355
H           6.7873876    -0.4512673    -1.2747760
O           2.3275438    -2.2295213    -0.9347053
24
138_C13H10O_6-7-18-16 (30,) energy =    -576.6321323
C           0.6434734     0.7620309    -0.1795942
H           1.4038720     1.4410207    -0.5518384
C          -0.6483980     1.2337513     0.0568725
H          -0.8815127     2.2801919    -0.1202209
C          -1.6383166     0.3634508     0.5154403
H          -2.6417605     0.7340873     0.7075560
C           0.9530911    -0.5909134     0.0286241
C           2.2996985    -1.1795428    -0.2765088
C          -1.3400072    -0.9874418     0.7191746
H          -2.1109602    -1.6682081     1.0698508
C           5.9593464     1.0651051     0.0118510
H           6.8952839     1.6131248     0.0816968
C           4.8781303     1.4237810     0.8180632
H           4.9732723     2.2433544     1.5251561
C          -0.0574298    -1.4631155     0.4646477
H           0.1868447    -2.5124082     0.5951244
C           3.6720829     0.7284211     0.7217097
H           2.8407108     1.0019995     1.3634253
C           3.5418327    -0.3430365    -0.1753067
C           4.6444606    -0.7125622    -0.9625706
H           4.5406214    -1.5603672    -1.6320204
C           5.8400179    -0.0056309    -0.8796251
H           6.6827420    -0.2908533    -1.5035195
O           2.3858948    -2.3560961    -0.6117179
24
138_C13H10O_6-7-18-16 (45,) energy =    -576.6315043
C           0.6848360     0.7325342    -0.1268286
H           1.4807572     1.4002898    -0.4398609
C          -0.6145843     1.2213831     0.0132819
H          -0.8202325     2.2703871    -0.1815764
C          -1.6467741     0.3648974     0.3988910
H          -2.6572139     0.7484493     0.5135968
C           0.9601168    -0.6232633     0.1087983
C           2.3208897    -1.2236712    -0.0811786
C          -1.3816202    -0.9886637     0.6316128
H          -2.1852164    -1.6575048     0.9276967
C           5.9361146     1.1068033    -0.0707027
H           6.8636922     1.6730610    -0.0638614
C           4.9348412     1.3956080     0.8577526
H           5.0853317     2.1777935     1.5968718
C          -0.0895675    -1.4804124     0.4786219
H           0.1349980    -2.5300818     0.6379546
C           3.7382924     0.6774948     0.8417957
H           2.9635558     0.8997638     1.5698724
C           3.5392335    -0.3449004    -0.0977635
C           4.5660319    -0.6522879    -1.0033212
H           4.4199838    -1.4722715    -1.6995568
C           5.7488393     0.0820133    -1.0030990
H           6.5307584    -0.1503160    -1.7210220
O           2.4445911    -2.4298223    -0.2608367
24
138_C13H10O_6-7-18-16 (60,) energy =    -576.6297731
C           0.7196492     0.7129979    -0.0804657
H           1.5409814     1.3777522    -0.3272203
C          -0.5852597     1.2055783    -0.0441789
H          -0.7728392     2.2546620    -0.2559829
C          -1.6465925     0.3519747     0.2604136
H          -2.6621911     0.7378518     0.2914382
C           0.9712120    -0.6422488     0.1823420
C           2.3440741    -1.2371955     0.1183674
C          -1.4042469    -1.0009799     0.5217232
H          -2.2309084    -1.6660926     0.7563327
C           5.9230826     1.1370352    -0.1469671
H           6.8433784     1.7119062    -0.2065590
C           5.0266752     1.3594823     0.8994730
H           5.2519780     2.0989125     1.6632383
C          -0.1051635    -1.4952201     0.4785176
H           0.1063243    -2.5425762     0.6680919
C           3.8393033     0.6292340     0.9699297
H           3.1426591     0.8038091     1.7856555
C           3.5439603    -0.3355288    -0.0032570
C           4.4679602    -0.5810013    -1.0286600
H           4.2572274    -1.3617487    -1.7534435
C           5.6404888     0.1667884    -1.1123765
H           6.3415696    -0.0159114    -1.9222769
O           2.5014425    -2.4515444     0.1019655
24
138_C13H10O_6-7-18-16 (75,) energy =    -576.6276146
C           0.7480837     0.6913447    -0.0716960
H           1.5871105     1.3500723    -0.2715420
C          -0.5558001     1.1823768    -0.1422237
H          -0.7281074     2.2252242    -0.3938878
C          -1.6360304     0.3345901     0.1081994
H          -2.6513834     0.7185454     0.0537782
C           0.9790580    -0.6550115     0.2481677
C           2.3553139    -1.2368206     0.3155264
C          -1.4134095    -1.0095593     0.4272443
H          -2.2551118    -1.6689756     0.6208479
C           5.8992669     1.1562959    -0.2095209
H           6.8089269     1.7372152    -0.3355542
C           5.1367649     1.2938493     0.9514946
H           5.4548621     1.9754905     1.7358033
C          -0.1146310    -1.5014644     0.4955616
H           0.0839501    -2.5406792     0.7370544
C           3.9644213     0.5531081     1.1107735
H           3.3713192     0.6625680     2.0152460
C           3.5493883    -0.3343906     0.1097613
C           4.3337171    -0.4899464    -1.0403510
H           4.0316470    -1.2045413    -1.8009150
C           5.4947012     0.2644578    -1.2055854
H           6.0900919     0.1477774    -2.1071601
O           2.5298827    -2.4367584     0.4766271
24
138_C13H10O_6-7-18-16 (90,) energy =    -576.6264982
C           0.7808747     0.6548506    -0.1295331
H           1.6321290     1.2984933    -0.3272492
C          -0.5158590     1.1407540    -0.2975535
H          -0.6717180     2.1645084    -0.6264041
C          -1.6102892     0.3122536    -0.0435738
H          -2.6202403     0.6918785    -0.1748085
C           0.9898578    -0.6659692     0.2944757
C           2.3592561    -1.2337912     0.4873600
C          -1.4092831    -1.0063619     0.3795549
H          -2.2622793    -1.6500219     0.5767030
C           5.8599909     1.1783468    -0.2423925
H           6.7524447     1.7717280    -0.4218324
C           5.2561392     1.1850575     1.0163254
H           5.6782557     1.7817290     1.8205770
C          -0.1175137    -1.4926954     0.5475517
H           0.0650956    -2.5113394     0.8743379
C           4.1098139     0.4234065     1.2479984
H           3.6438798     0.4267494     2.2300456
C           3.5604900    -0.3523946     0.2201992
C           4.1701701    -0.3587581    -1.0400906
H           3.7516871    -0.9656974    -1.8387687
C           5.3152924     0.4051410    -1.2694506
H           5.7833793     0.3933391    -2.2501518
O           2.5247183    -2.3900166     0.8481376
24
138_C13H10O_6-7-18-16 (105,) energy =    -576.6272439
C           0.7961647     0.6277164    -0.2048750
H           1.6486075     1.2662539    -0.4125116
C          -0.4964841     1.0881170    -0.4565222
H          -0.6458410     2.0847060    -0.8628102
C          -1.5948295     0.2705629    -0.1853047
H          -2.6012875     0.6302648    -0.3827440
C           0.9977237    -0.6563227     0.3234450
C           2.3596060    -1.1951208     0.6307789
C          -1.4016254    -1.0109764     0.3421773
H          -2.2571973    -1.6464959     0.5540638
C           5.8429033     1.1836856    -0.2606729
H           6.7259453     1.7782410    -0.4787228
C           5.3923598     1.0559774     1.0550080
H           5.9224369     1.5525433     1.8633426
C          -0.1141815    -1.4708190     0.5960702
H           0.0616650    -2.4591800     1.0082245
C           4.2628451     0.2875656     1.3372083
H           3.9199485     0.1752250     2.3620915
C           3.5720059    -0.3553576     0.3026884
C           4.0160062    -0.2100709    -1.0175134
H           3.4765468    -0.6976443    -1.8255866
C           5.1555886     0.5465146    -1.2953912
H           5.5032295     0.6412737    -2.3206487
O           2.5025564    -2.2746135     1.1879510
24
138_C13H10O_6-7-18-16 (120,) energy =    -576.6292252
C           0.7715186     0.6392081    -0.2260188
H           1.6094474     1.3029838    -0.4113174
C          -0.5216793     1.0453687    -0.5568240
H          -0.6829422     2.0222406    -1.0044237
C          -1.6048762     0.2004859    -0.3106323
H          -2.6112095     0.5173764    -0.5717447
C           0.9894862    -0.6168201     0.3604780
C           2.3474995    -1.0961808     0.7738840
C          -1.3960733    -1.0525596     0.2756132
H          -2.2394957    -1.7097297     0.4694017
C           5.8645099     1.1502644    -0.2881452
H           6.7569565     1.7142648    -0.5457461
C           5.5359894     0.9340165     1.0523954
H           6.1704226     1.3320992     1.8397132
C          -0.1087817    -1.4561775     0.6126859
H           0.0768545    -2.4194226     1.0766391
C           4.3969045     0.2019614     1.3837602
H           4.1466452     0.0104533     2.4231460
C           3.5676763    -0.3079289     0.3758818
C           3.8902444    -0.0707809    -0.9671646
H           3.2463444    -0.4566210    -1.7531534
C           5.0443760     0.6411544    -1.2969030
H           5.2993933     0.8028099    -2.3408157
O           2.4724142    -2.0811038     1.4906534
24
138_C13H10O_6-7-18-16 (135,) energy =    -576.6311216
C           0.7218668     0.6797455    -0.2097464
H           1.5312899     1.3883522    -0.3504379
C          -0.5697890     1.0137736    -0.6186727
H          -0.7555803     1.9775718    -1.0847746
C          -1.6195952     0.1146064    -0.4264188
H          -2.6239678     0.3740753    -0.7507402
C           0.9717484    -0.5567414     0.4051963
C           2.3228593    -0.9566247     0.9186290
C          -1.3798230    -1.1183414     0.1892472
H          -2.1970159    -1.8178302     0.3432064
C           5.9050431     1.0788375    -0.3235257
H           6.8175221     1.5867351    -0.6242816
C           5.6709442     0.8024677     1.0263892
H           6.3992488     1.0969622     1.7771632
C          -0.0954549    -1.4474253     0.6092336
H           0.1102199    -2.3917783     1.1026184
C           4.5066179     0.1419583     1.4110822
H           4.3242060    -0.1012035     2.4533107
C           3.5524402    -0.2295684     0.4524872
C           3.7879030     0.0614133    -0.8990248
H           3.0587208    -0.2307868    -1.6493509
C           4.9671177     0.6996523    -1.2855368
H           5.1513284     0.9031936    -2.3369395
O           2.4279643    -1.8433479     1.7582345
24
138_C13H10O_6-7-18-16 (150,) energy =    -576.6320885
C           0.6573185     0.7355783    -0.1781583
H           1.4240003     1.4980759    -0.2698309
C          -0.6281657     0.9858701    -0.6600929
H          -0.8500633     1.9373171    -1.1357350
C          -1.6259120     0.0190623    -0.5281479
H          -2.6244543     0.2121726    -0.9113274
C           0.9525268    -0.4827793     0.4527807
C           2.2919268    -0.7891857     1.0562726
C          -1.3418054    -1.1952199     0.1047240
H          -2.1188518    -1.9469226     0.2139544
C           5.9478571     0.9816075    -0.3625688
H           6.8819454     1.4171409    -0.7074756
C           5.7849716     0.6521128     0.9865095
H           6.5917744     0.8316740     1.6919239
C          -0.0655678    -1.4386559     0.6022538
H           0.1687337    -2.3658522     1.1151466
C           4.5920007     0.0858744     1.4257449
H           4.4568572    -0.1977304     2.4645832
C           3.5351797    -0.1345986     0.5280848
C           3.7074992     0.1964435    -0.8245926
H           2.9104367     0.0022849    -1.5354582
C           4.9122692     0.7439104    -1.2674986
H           5.0417064     0.9828711    -2.3195762
O           2.3720106    -1.5720894     1.9967702
24
138_C13H10O_6-7-18-16 (165,) energy =    -576.6317883
C           0.5837206     0.7994736    -0.1505671
H           1.2952106     1.6176452    -0.2030594
C          -0.6906849     0.9561601    -0.6972786
H          -0.9576252     1.8895943    -1.1853453
C          -1.6203560    -0.0812839    -0.6134841
H          -2.6091955     0.0381381    -1.0482863
C           0.9347669    -0.3939649     0.4990308
C           2.2582423    -0.5982078     1.1790486
C          -1.2814006    -1.2702302     0.0393457
H          -2.0064363    -2.0762368     0.1131670
C           5.9859699     0.8676538    -0.3970896
H           6.9395883     1.2198732    -0.7815443
C           5.8701384     0.4796312     0.9416260
H           6.7340077     0.5279690     1.5990350
C          -0.0184806    -1.4190502     0.6050911
H           0.2517446    -2.3251406     1.1378330
C           4.6509454     0.0225345     1.4303182
H           4.5452864    -0.3009367     2.4605774
C           3.5203776    -0.0301912     0.5974219
C           3.6508583     0.3443425    -0.7493285
H           2.8037405     0.2622550    -1.4216437
C           4.8780816     0.7903736    -1.2417018
H           4.9690205     1.0706220    -2.2875892
O           2.3076457    -1.2677978     2.2055273
24
138_C13H10O_6-7-18-16 (180,) energy =    -576.6302458
C           0.5051619     0.8622585    -0.1361575
H           1.1522635     1.7336945    -0.1675229
C          -0.7540562     0.9162236    -0.7354797
H          -1.0705957     1.8225604    -1.2445559
C          -1.6051556    -0.1882094    -0.6764923
H          -2.5812413    -0.1489579    -1.1526366
C           0.9191048    -0.2944855     0.5417534
C           2.2253581    -0.3918339     1.2800783
C          -1.2044803    -1.3400536     0.0063456
H          -1.8688827    -2.1980103     0.0634870
C           6.0119788     0.7473910    -0.4260656
H           6.9799724     1.0121854    -0.8433531
C           5.9185220     0.2863106     0.8910333
H           6.8142538     0.1879768     1.4983235
C           0.0414503    -1.3861057     0.6262546
H           0.3528989    -2.2635161     1.1841482
C           4.6798628    -0.0558725     1.4218028
H           4.5862653    -0.4256491     2.4373496
C           3.5088851     0.0752216     0.6547283
C           3.6178056     0.5098234    -0.6762199
H           2.7388508     0.5593213    -1.3083875
C           4.8616336     0.8513504    -1.2085529
H           4.9317245     1.1878247    -2.2393634
O           2.2422985    -0.9362346     2.3788132
