24
138_C13H10O_0-6-7-18 (-165,) energy =    -576.6317883
C           0.1289580    -0.3878732     1.8825225
H           0.4922141    -0.6279227     2.8763186
C          -1.2276113    -0.2042899     1.6371339
H          -1.9421773    -0.2893089     2.4513546
C          -1.6720397     0.0801243     0.3418566
H          -2.7325378     0.2183227     0.1482496
C           1.0671818    -0.2646721     0.8436671
C           2.5051981    -0.5434546     1.1729989
C          -0.7530260     0.1741357    -0.7037561
H          -1.0960892     0.3737703    -1.7152698
C           5.7855012     0.6204573    -1.3586215
H           6.6285229     0.9062841    -1.9821059
C           4.6671641     1.4508777    -1.2728233
H           4.6419310     2.3904706    -1.8180670
C           0.6097103     0.0031720    -0.4563511
H           1.3124355     0.0509281    -1.2811172
C           3.5786171     1.0791602    -0.4826455
H           2.7202066     1.7391771    -0.4060315
C           3.6057511    -0.1225543     0.2416973
C           4.7485175    -0.9350010     0.1728270
H           4.7731671    -1.8459522     0.7622325
C           5.8240665    -0.5743210    -0.6335674
H           6.6971078    -1.2186477    -0.6920522
O           2.7885600    -1.1535152     2.1986698
24
138_C13H10O_0-6-7-18 (-150,) energy =    -576.6320883
C           0.1735787    -0.3172273     1.8725540
H           0.5591646    -0.5109675     2.8683950
C          -1.1706762    -0.0200298     1.6688561
H          -1.8475394     0.0375870     2.5169811
C          -1.6508999     0.1958509     0.3735267
H          -2.7020878     0.4207752     0.2136255
C           1.0618945    -0.3766009     0.7870580
C           2.4891188    -0.7458810     1.0695767
C          -0.7807699     0.1150452    -0.7147432
H          -1.1540351     0.2652747    -1.7241302
C           5.7873217     0.7230976    -1.2700807
H           6.6342496     1.0866537    -1.8460452
C           4.6084053     1.4680696    -1.2166378
H           4.5387126     2.4173009    -1.7408755
C           0.5716537    -0.1612019    -0.5100158
H           1.2414003    -0.2350487    -1.3610598
C           3.5159867     0.9983377    -0.4863791
H           2.6075810     1.5898792    -0.4360166
C           3.5991094    -0.2181489     0.2084689
C           4.7986481    -0.9475386     0.1680765
H           4.8587413    -1.8733310     0.7310691
C           5.8806000    -0.4871757    -0.5756156
H           6.7997319    -1.0657356    -0.6111345
O           2.7494824    -1.4755453     2.0201581
24
138_C13H10O_0-6-7-18 (-135,) energy =    -576.6311217
C           0.2402314    -0.2440003     1.8332825
H           0.6638489    -0.3898146     2.8222009
C          -1.0848955     0.1550752     1.6760812
H          -1.7010836     0.3426791     2.5512403
C          -1.6230240     0.3065236     0.3950648
H          -2.6594209     0.6098043     0.2728117
C           1.0489276    -0.4743320     0.7106698
C           2.4656710    -0.9212173     0.9360607
C          -0.8288908     0.0653816    -0.7274789
H          -1.2474690     0.1715248    -1.7246472
C           5.7809577     0.8222536    -1.1777402
H           6.6315840     1.2545344    -1.6981498
C           4.5545618     1.4881419    -1.1726526
H           4.4498550     2.4428059    -1.6809367
C           0.5063975    -0.3089250    -0.5719201
H           1.1228990    -0.4940455    -1.4469810
C           3.4589558     0.9316956    -0.5115019
H           2.5119074     1.4608823    -0.5005435
C           3.5851346    -0.2943845     0.1596150
C           4.8288613    -0.9478085     0.1624210
H           4.9154501    -1.8857839     0.7011629
C           5.9164701    -0.3983571    -0.5080437
H           6.8719936    -0.9158197    -0.5079389
O           2.7036253    -1.7640435     1.7935656
24
138_C13H10O_0-6-7-18 (-120,) energy =    -576.6292252
C           0.3279087    -0.1649406     1.7839585
H           0.8049444    -0.2467715     2.7562552
C          -0.9772862     0.3118889     1.6728869
H          -1.5171878     0.6212679     2.5637547
C          -1.5917914     0.3861594     0.4204501
H          -2.6120656     0.7504901     0.3355201
C           1.0355131    -0.5579491     0.6401608
C           2.4426466    -1.0704048     0.8012719
C          -0.8932550    -0.0078779    -0.7224498
H          -1.3695119     0.0434937    -1.6978760
C           5.7716456     0.9099440    -1.0629455
H           6.6248934     1.4018562    -1.5226242
C           4.5137222     1.5131316    -1.1025749
H           4.3864389     2.4769658    -1.5878007
C           0.4220090    -0.4621343    -0.6162171
H           0.9687931    -0.7575288    -1.5078628
C           3.4162429     0.8815965    -0.5164954
H           2.4420300     1.3583706    -0.5423021
C           3.5719005    -0.3591122     0.1202772
C           4.8443016    -0.9536808     0.1627875
H           4.9486738    -1.9080046     0.6686814
C           5.9353604    -0.3260922    -0.4282850
H           6.9150365    -0.7950635    -0.3953408
O           2.6578962    -2.0200577     1.5437288
24
138_C13H10O_0-6-7-18 (-105,) energy =    -576.6272438
C           0.4305976    -0.0577205     1.7107140
H           0.9780709    -0.0450076     2.6491689
C          -0.8633846     0.4592855     1.6451449
H          -1.3190308     0.8865455     2.5344092
C          -1.5725659     0.4246390     0.4425358
H          -2.5824197     0.8229273     0.3939602
C           1.0270758    -0.6093309     0.5702291
C           2.4237872    -1.1776854     0.6649434
C          -0.9807817    -0.1220179    -0.6976036
H          -1.5289954    -0.1530789    -1.6354297
C           5.7716293     0.9834749    -0.9392418
H           6.6284045     1.5209379    -1.3372387
C           4.4998451     1.5554504    -1.0000951
H           4.3649349     2.5384610    -1.4428739
C           0.3196271    -0.6256618    -0.6382550
H           0.7822780    -1.0421976    -1.5293977
C           3.3988523     0.8664771    -0.4908129
H           2.4115456     1.3145253    -0.5353355
C           3.5649379    -0.4015761     0.0862226
C           4.8493744    -0.9679198     0.1457856
H           4.9584146    -1.9477038     0.5994275
C           5.9449841    -0.2805494    -0.3647087
H           6.9355145    -0.7247609    -0.3167352
O           2.6103985    -2.2323140     1.2558006
24
138_C13H10O_0-6-7-18 (-90,) energy =    -576.6264980
C           0.5334621     0.0958888     1.5905564
H           1.1683729     0.2398142     2.4610041
C          -0.7651786     0.6069805     1.5810325
H          -1.1367503     1.1503262     2.4457504
C          -1.5847317     0.4187503     0.4665613
H          -2.5956602     0.8171755     0.4600300
C           1.0203769    -0.6096213     0.4836900
C           2.4029951    -1.2246290     0.5191226
C          -1.1025629    -0.2849354    -0.6387138
H          -1.7374651    -0.4375579    -1.5074112
C           5.8031771     1.0370587    -0.8047696
H           6.6716284     1.5994540    -1.1376772
C           4.5349972     1.6181020    -0.8575665
H           4.4143335     2.6312327    -1.2311032
C           0.1949779    -0.7986316    -0.6312285
H           0.5661205    -1.3525430    -1.4896137
C           3.4194260     0.8978657    -0.4302790
H           2.4332505     1.3492907    -0.4710738
C           3.5671787    -0.4109932     0.0525120
C           4.8472605    -0.9878355     0.1015398
H           4.9404286    -2.0015960     0.4775408
C           5.9581492    -0.2679985    -0.3241211
H           6.9460773    -0.7187065    -0.2836430
O           2.5463408    -2.3703406     0.9205642
24
138_C13H10O_0-6-7-18 (-75,) energy =    -576.6276146
C           0.6224050     0.2465528     1.4271347
H           1.3426716     0.5168695     2.1952246
C          -0.6834202     0.7353760     1.4927501
H          -0.9766926     1.3821022     2.3153657
C          -1.6098977     0.3915950     0.5069604
H          -2.6248867     0.7767114     0.5551522
C           1.0091150    -0.5944589     0.3758440
C           2.3775381    -1.2342629     0.3532311
C          -1.2315589    -0.4549273    -0.5376677
H          -1.9519304    -0.7322167    -1.3025918
C           5.8540731     1.0739924    -0.6614087
H           6.7413156     1.6456151    -0.9209719
C           4.5967234     1.6782160    -0.7095284
H           4.5028248     2.7186150    -1.0083888
C           0.0673311    -0.9589355    -0.5948591
H           0.3562950    -1.6395791    -1.3908415
C           3.4571707     0.9461102    -0.3754129
H           2.4796482     1.4156999    -0.4176435
C           3.5691478    -0.3990688     0.0070272
C           4.8385516    -0.9995603     0.0494126
H           4.9044428    -2.0422164     0.3431005
C           5.9735062    -0.2673912    -0.2812116
H           6.9527352    -0.7370473    -0.2450289
O           2.4834988    -2.4347224     0.5626695
24
138_C13H10O_0-6-7-18 (-60,) energy =    -576.6297732
C           0.6986770     0.3388927     1.2617957
H           1.4882463     0.6897451     1.9210919
C          -0.6027477     0.8193163     1.4154665
H          -0.8228954     1.5415025     2.1970285
C          -1.6182292     0.3699549     0.5699309
H          -2.6295920     0.7508400     0.6841186
C           0.9916393    -0.6018859     0.2647169
C           2.3495544    -1.2444110     0.1608044
C          -1.3348433    -0.5780570    -0.4170407
H          -2.1257163    -0.9374664    -1.0698669
C           5.8894688     1.0975217    -0.5138995
H           6.7931176     1.6751138    -0.6902849
C           4.6394473     1.7099481    -0.6150899
H           4.5673055     2.7623871    -0.8754539
C          -0.0416295    -1.0777985    -0.5545911
H           0.1802433    -1.8410003    -1.2945824
C           3.4784147     0.9711626    -0.3850567
H           2.5080809     1.4485300    -0.4742068
C           3.5605731    -0.3907875    -0.0573510
C           4.8232815    -1.0001890     0.0325949
H           4.8678062    -2.0567962     0.2759483
C           5.9796700    -0.2604923    -0.1895996
H           6.9528203    -0.7379277    -0.1133316
O           2.4402785    -2.4651787     0.1945116
24
138_C13H10O_0-6-7-18 (-45,) energy =    -576.6315043
C           0.7616878     0.3989338     1.1151945
H           1.5997402     0.8073526     1.6724801
C          -0.5295611     0.8702188     1.3563558
H          -0.6908280     1.6472566     2.0986345
C          -1.6101459     0.3418017     0.6485387
H          -2.6141342     0.7162285     0.8299395
C           0.9800704    -0.6148638     0.1705745
C           2.3309599    -1.2373082    -0.0404269
C          -1.4011980    -0.6762066    -0.2867153
H          -2.2423701    -1.0950748    -0.8323728
C           5.9136110     1.1176807    -0.3780792
H           6.8285896     1.6968010    -0.4712469
C           4.6758024     1.7344747    -0.5653008
H           4.6245011     2.7912084    -0.8130215
C          -0.1168962    -1.1652482    -0.5095474
H           0.0563149    -1.9778148    -1.2082742
C           3.4994664     0.9947814    -0.4384015
H           2.5406665     1.4769600    -0.5983077
C           3.5533098    -0.3737645    -0.1322594
C           4.8051401    -0.9885035     0.0360022
H           4.8314960    -2.0515159     0.2526332
C           5.9764040    -0.2468518    -0.0768384
H           6.9398519    -0.7290068     0.0648717
O           2.4211880    -2.4524238    -0.1735907
24
138_C13H10O_0-6-7-18 (-30,) energy =    -576.6321323
C           0.7933410     0.4498017     0.9821090
H           1.6589618     0.9148600     1.4427925
C          -0.4871920     0.9014845     1.3039085
H          -0.6093112     1.7243943     2.0029436
C          -1.6070991     0.2955283     0.7327339
H          -2.6033783     0.6541674     0.9776441
C           0.9637946    -0.6233882     0.0939315
C           2.3065497    -1.2065174    -0.2375504
C          -1.4463928    -0.7787688    -0.1479142
H          -2.3173601    -1.2562759    -0.5885810
C           5.9299330     1.1144791    -0.2632911
H           6.8560238     1.6830763    -0.2789157
C           4.7159704     1.7489010    -0.5305907
H           4.6953457     2.8094230    -0.7663820
C          -0.1709716    -1.2429855    -0.4542305
H          -0.0273821    -2.0897289    -1.1176431
C           3.5247815     1.0225878    -0.4998605
H           2.5862789     1.5189379    -0.7249348
C           3.5398134    -0.3512825    -0.2136685
C           4.7695937    -0.9849257     0.0274976
H           4.7711976    -2.0529646     0.2198524
C           5.9544046    -0.2554370     0.0161947
H           6.8991548    -0.7528902     0.2180944
O           2.3970210    -2.3939274    -0.5307224
24
138_C13H10O_0-6-7-18 (-15,) energy =    -576.6315501
C           0.7974922     0.5207054     0.8538342
H           1.6706314     1.0510850     1.2175479
C          -0.4741278     0.9389154     1.2479627
H          -0.5794072     1.8041476     1.8968010
C          -1.6053595     0.2463950     0.8146689
H          -2.5951294     0.5771306     1.1183420
C           0.9501280    -0.6047938     0.0286780
C           2.2812043    -1.1349443    -0.4193973
C          -1.4632281    -0.8775605    -0.0054083
H          -2.3421386    -1.4213928    -0.3409101
C           5.9522358     1.0974670    -0.1490997
H           6.8905853     1.6425803    -0.0903378
C           4.7755547     1.7663690    -0.4889398
H           4.7968675     2.8302966    -0.7088907
C          -0.1959609    -1.3018150    -0.3903894
H          -0.0627674    -2.1762491    -1.0186764
C           3.5676766     1.0701034    -0.5519096
H           2.6602386     1.5937061    -0.8361800
C           3.5289315    -0.3079145    -0.2892935
C           4.7237951    -0.9770582     0.0190726
H           4.6901957    -2.0488001     0.1868011
C           5.9237781    -0.2769240     0.1049913
H           6.8398565    -0.8022866     0.3610498
O           2.3659696    -2.2760550    -0.8613141
24
138_C13H10O_0-6-7-18 (0,) energy =    -576.6299149
C           0.7734177     0.5962066     0.7198703
H           1.6334151     1.2025465     0.9793088
C          -0.4892010     0.9675904     1.1834701
H          -0.6005560     1.8725872     1.7744511
C          -1.6027595     0.1781681     0.8947137
H          -2.5852585     0.4699731     1.2563852
C           0.9363790    -0.5760388    -0.0355468
C           2.2509828    -1.0428422    -0.5920651
C          -1.4512305    -0.9915238     0.1430677
H          -2.3158547    -1.6102483    -0.0814720
C           5.9732229     1.0554311    -0.0489215
H           6.9239369     1.5658594     0.0798275
C           4.8437023     1.7718455    -0.4468091
H           4.9147994     2.8382252    -0.6432751
C          -0.1938460    -1.3624895    -0.3201314
H          -0.0543796    -2.2623987    -0.9095913
C           3.6189299     1.1201536    -0.5992269
H           2.7509166     1.6812497    -0.9319216
C           3.5161689    -0.2600722    -0.3687662
C           4.6661576    -0.9775393    -0.0054329
H           4.5893825    -2.0512272     0.1341054
C           5.8817398    -0.3216950     0.1711529
H           6.7614824    -0.8851545     0.4701004
O           2.3220385    -2.1221303    -1.1699419
24
138_C13H10O_0-6-7-18 (15,) energy =    -576.6315501
C           0.6801496     0.7610566    -0.0334169
H           1.4742081     1.4523207    -0.2933431
C          -0.6220613     1.2378955     0.1218465
H          -0.8250358     2.2987155     0.0028417
C          -1.6600390     0.3557120     0.4240395
H          -2.6726230     0.7299538     0.5500161
C           0.9549337    -0.6090798     0.1015263
C           2.3210326    -1.2061596    -0.0744755
C          -1.3965153    -1.0112452     0.5581423
H          -2.2037174    -1.7009886     0.7893665
C           5.9516520     1.1070763    -0.0953326
H           6.8805771     1.6711014    -0.1038830
C           4.9254714     1.4641921     0.7804089
H           5.0575524     2.2977080     1.4649387
C          -0.1010076    -1.4893985     0.3931348
H           0.1236109    -2.5469563     0.4839310
C           3.7271616     0.7488558     0.7832724
H           2.9414641     1.0207301     1.4812448
C           3.5501432    -0.3418740    -0.0818416
C           4.6012861    -0.7129529    -0.9350517
H           4.4689148    -1.5786980    -1.5760320
C           5.7868940     0.0160813    -0.9537787
H           6.5875345    -0.2699127    -1.6305017
O           2.4402624    -2.4132843    -0.2568832
24
138_C13H10O_0-6-7-18 (30,) energy =    -576.6321323
C           0.6425839     0.7588570    -0.1752346
H           1.4033379     1.4377271    -0.5469811
C          -0.6496563     1.2305173     0.0592602
H          -0.8828888     2.2767742    -0.1187645
C          -1.6399025     0.3602310     0.5170978
H          -2.6436331     0.7309195     0.7076038
C           0.9521304    -0.5938804     0.0343921
C           2.2995446    -1.1818950    -0.2683090
C          -1.3416024    -0.9905029     0.7220700
H          -2.1129901    -1.6710554     1.0721963
C           5.9572739     1.0669355     0.0149150
H           6.8928245     1.6157955     0.0833873
C           4.8763623     1.4253966     0.8216204
H           4.9713792     2.2457373     1.5278401
C          -0.0586312    -1.4662237     0.4696575
H           0.1857795    -2.5153540     0.6011974
C           3.6708649     0.7288496     0.7268597
H           2.8398817     1.0025503     1.3690146
C           3.5407053    -0.3436999    -0.1688983
C           4.6430710    -0.7128593    -0.9566435
H           4.5392690    -1.5614577    -1.6250927
C           5.8380607    -0.0047290    -0.8754302
H           6.6804935    -0.2898166    -1.4997729
O           2.3872885    -2.3592080    -0.6004380
24
138_C13H10O_0-6-7-18 (45,) energy =    -576.6315043
C           0.5795063     0.7694732    -0.3067823
H           1.2879225     1.4424029    -0.7811430
C          -0.7032682     1.2197006     0.0084548
H          -0.9870088     2.2437439    -0.2186972
C          -1.6192740     0.3554803     0.6100811
H          -2.6148006     0.7096921     0.8641586
C           0.9519402    -0.5548597    -0.0325296
C           2.2769986    -1.1201633    -0.4585743
C          -1.2584004    -0.9687060     0.8765388
H          -1.9731241    -1.6455516     1.3367703
C           5.9696642     1.0083206     0.1151864
H           6.9130608     1.5290109     0.2570686
C           4.8462300     1.3876013     0.8511890
H           4.9143712     2.1969980     1.5729348
C           0.0123655    -1.4263323     0.5389280
H           0.2956039    -2.4603410     0.7094778
C           3.6319838     0.7258094     0.6650253
H           2.7654745     1.0164339     1.2498849
C           3.5349168    -0.3300997    -0.2543060
C           4.6764758    -0.7156713    -0.9764366
H           4.5909141    -1.5467707    -1.6689463
C           5.8826607    -0.0458368    -0.8001382
H           6.7578915    -0.3447775    -1.3705709
O           2.3257107    -2.2462524    -0.9401671
24
138_C13H10O_0-6-7-18 (60,) energy =    -576.6297732
C           0.4809223     0.7820574    -0.4453218
H           1.1153331     1.4495870    -1.0224838
C          -0.7909626     1.1984346    -0.0490057
H          -1.1441344     2.1892114    -0.3219314
C          -1.6073398     0.3426937     0.6921388
H          -2.5941033     0.6704292     1.0081365
C           0.9421241    -0.4983009    -0.1091158
C           2.2480525    -1.0303452    -0.6373631
C          -1.1581928    -0.9398340     1.0185378
H          -1.7958585    -1.6119149     1.5864525
C           5.9764541     0.9249637     0.2267316
H           6.9280152     1.4043429     0.4412836
C           4.8210331     1.3402496     0.8903571
H           4.8716166     2.1386146     1.6256644
C           0.1008799    -1.3660885     0.6012756
H           0.4437537    -2.3732122     0.8190635
C           3.5978417     0.7288620     0.6133667
H           2.7035087     1.0479587     1.1384580
C           3.5236346    -0.3093275    -0.3277525
C           4.6941528    -0.7264919    -0.9833079
H           4.6204383    -1.5382223    -1.6997448
C           5.9110740    -0.1108850    -0.7114859
H           6.8111209    -0.4359496    -1.2262980
O           2.2582899    -2.0826191    -1.2636666
24
138_C13H10O_0-6-7-18 (75,) energy =    -576.6276146
C           0.3632313     0.7745164    -0.6117947
H           0.9004111     1.4185379    -1.3035219
C          -0.8920347     1.1563098    -0.1353785
H          -1.3301091     2.0957561    -0.4617112
C          -1.5833701     0.3323591     0.7542842
H          -2.5581067     0.6323406     1.1294373
C           0.9338100    -0.4381163    -0.2043178
C           2.2312547    -0.9286438    -0.8029833
C          -1.0228139    -0.8825030     1.1553700
H          -1.5613075    -1.5312068     1.8410385
C           5.9748547     0.8323977     0.3493046
H           6.9293461     1.2662562     0.6357202
C           4.7995071     1.2655558     0.9651491
H           4.8370676     2.0341315     1.7322529
C           0.2228983    -1.2740851     0.6662041
H           0.6486420    -2.2310673     0.9547990
C           3.5734718     0.7105511     0.5977388
H           2.6608051     1.0448209     1.0805918
C           3.5166035    -0.2855913    -0.3885509
C           4.7052083    -0.7174276    -1.0005297
H           4.6414222    -1.4920820    -1.7578693
C           5.9259934    -0.1610456    -0.6349809
H           6.8417282    -0.4981999    -1.1130354
O           2.2167991    -1.8791717    -1.5727251
24
138_C13H10O_0-6-7-18 (90,) energy =    -576.6264980
C           0.2304559     0.7135569    -0.8016727
H           0.6539182     1.2894358    -1.6205428
C          -0.9991994     1.0800385    -0.2526616
H          -1.5289404     1.9436319    -0.6458646
C          -1.5480767     0.3388426     0.7954357
H          -2.5054741     0.6250383     1.2223359
C           0.9189254    -0.3999933    -0.3056898
C           2.2181837    -0.8405544    -0.9451872
C          -0.8644812    -0.7726373     1.2920257
H          -1.2888511    -1.3553313     2.1052956
C           5.9564775     0.7292322     0.4654976
H           6.9091918     1.1192286     0.8141541
C           4.7704255     1.1386971     1.0772976
H           4.7978114     1.8461489     1.9014855
C           0.3644287    -1.1424328     0.7437702
H           0.8916743    -2.0123545     1.1267025
C           3.5468088     0.6394987     0.6307821
H           2.6244102     0.9576642     1.1061162
C           3.5034711    -0.2748382    -0.4322974
C           4.7021985    -0.6816624    -1.0416471
H           4.6474796    -1.3901633    -1.8618906
C           5.9208738    -0.1823387    -0.5956275
H           6.8450875    -0.4999233    -1.0707576
O           2.1987508    -1.6500230    -1.8610157
24
138_C13H10O_0-6-7-18 (105,) energy =    -576.6272438
C           0.0939472     0.6289534    -0.9527430
H           0.4092524     1.1162288    -1.8712920
C          -1.1178831     0.9744614    -0.3543490
H          -1.7416047     1.7424580    -0.8039132
C          -1.5303719     0.3334207     0.8158329
H          -2.4770116     0.5997230     1.2781687
C           0.9054280    -0.3584804    -0.3806939
C           2.2073323    -0.7291887    -1.0518288
C          -0.7232452    -0.6497790     1.3910073
H          -1.0404625    -1.1529441     2.3005229
C           5.9538761     0.6167341     0.5618500
H           6.9088870     0.9533662     0.9567736
C           4.7656691     1.0141750     1.1770723
H           4.7935151     1.6615726     2.0492334
C           0.4970324    -0.9860868     0.8027370
H           1.1286091    -1.7451174     1.2573438
C           3.5390365     0.5820541     0.6722147
H           2.6162157     0.8954093     1.1494091
C           3.4940357    -0.2507819    -0.4560022
C           4.6951523    -0.6431131    -1.0703850
H           4.6398564    -1.2841090    -1.9442983
C           5.9167448    -0.2132996    -0.5640112
H           6.8421218    -0.5214545    -1.0430662
O           2.1913158    -1.3665445    -2.0957151
24
138_C13H10O_0-6-7-18 (120,) energy =    -576.6292252
C          -0.0288880     0.5630261    -1.0420148
H           0.2047413     0.9788785    -2.0177732
C          -1.2433863     0.8510356    -0.4213037
H          -1.9560803     1.5110187    -0.9084836
C          -1.5461423     0.2879803     0.8208871
H          -2.4964399     0.5066172     1.3005138
C           0.9003917    -0.2797632    -0.4178533
C           2.2002655    -0.5693309    -1.1214677
C          -0.6259353    -0.5558382     1.4458898
H          -0.8598336    -0.9999084     2.4097411
C           5.9782968     0.4936742     0.6323334
H           6.9415396     0.7609120     1.0590194
C           4.8004339     0.9294305     1.2410473
H           4.8444156     1.5403924     2.1384951
C           0.6007569    -0.8256699     0.8376375
H           1.3211186    -1.4733027     1.3305001
C           3.5627404     0.5842931     0.6971899
H           2.6499536     0.9325408     1.1690101
C           3.4953579    -0.1969306    -0.4665176
C           4.6871092    -0.6228707    -1.0769494
H           4.6166411    -1.2170957    -1.9822046
C           5.9194961    -0.2839508    -0.5292275
H           6.8363851    -0.6216402    -1.0046904
O           2.1830126    -1.0410552    -2.2513317
24
138_C13H10O_0-6-7-18 (135,) energy =    -576.6311217
C          -0.1299876     0.5114627    -1.1011104
H           0.0442456     0.8756445    -2.1089237
C          -1.3576320     0.7081184    -0.4732960
H          -2.1477675     1.2489694    -0.9870590
C          -1.5751703     0.2040846     0.8120636
H          -2.5359936     0.3504441     1.2983155
C           0.9019057    -0.1721350    -0.4414198
C           2.2000030    -0.3731145    -1.1709534
C          -0.5580570    -0.4898695     1.4699462
H          -0.7277648    -0.8925324     2.4648736
C           6.0088668     0.3629264     0.6864039
H           6.9801931     0.5488949     1.1371801
C           4.8548770     0.8768211     1.2794468
H           4.9255951     1.4701843     2.1869812
C           0.6812579    -0.6649015     0.8528875
H           1.4718179    -1.2035030     1.3676678
C           3.6059429     0.6332716     0.7067752
H           2.7140418     1.0465996     1.1658304
C           3.5028216    -0.1206396    -0.4724516
C           4.6725320    -0.6187981    -1.0703169
H           4.5781295    -1.1842021    -1.9916990
C           5.9154531    -0.3862805    -0.4911828
H           6.8136988    -0.7835626    -0.9560639
O           2.1843147    -0.6952165    -2.3534494
24
138_C13H10O_0-6-7-18 (150,) energy =    -576.6320883
C          -0.2080110     0.4615692    -1.1537397
H          -0.0750683     0.7845703    -2.1813133
C          -1.4493217     0.5455182    -0.5300884
H          -2.2995918     0.9556172    -1.0682698
C          -1.6036117     0.0948958     0.7845338
H          -2.5745864     0.1536752     1.2692074
C           0.9024349    -0.0493387    -0.4632218
C           2.2019494    -0.1544608    -1.2071071
C          -0.5114163    -0.4372705     1.4714802
H          -0.6317572    -0.8041885     2.4871805
C           6.0307180     0.2325138     0.7166420
H           7.0073593     0.3315921     1.1830649
C           4.9161913     0.8416592     1.2949632
H           5.0242910     1.4248310     2.2054288
C           0.7387918    -0.5018136     0.8549665
H           1.5818939    -0.9279951     1.3896047
C           3.6593427     0.7071894     0.7037333
H           2.7994328     1.1962955     1.1498149
C           3.5094688    -0.0296855    -0.4812206
C           4.6418983    -0.6177188    -1.0680375
H           4.5168548    -1.1625623    -1.9981843
C           5.8911523    -0.4984631    -0.4673929
H           6.7587906    -0.9684961    -0.9224415
O           2.1929852    -0.3317415    -2.4204889
24
138_C13H10O_0-6-7-18 (165,) energy =    -576.6317883
C          -0.2577066     0.4014426    -1.1853053
H          -0.1486342     0.6813991    -2.2278679
C          -1.5078540     0.3650439    -0.5770250
H          -2.3950840     0.6314105    -1.1450567
C          -1.6234594    -0.0231140     0.7616758
H          -2.6006570    -0.0570832     1.2361964
C           0.9008977     0.0761431    -0.4597169
C           2.2052577     0.0733647    -1.2031601
C          -0.4836235    -0.3784369     1.4836523
H          -0.5713066    -0.7010803     2.5175378
C           6.0435442     0.1003377     0.7438899
H           7.0229248     0.1083860     1.2149146
C           4.9852707     0.8035710     1.3210879
H           5.1408562     1.3710391     2.2346171
C           0.7727712    -0.3296146     0.8781966
H           1.6488021    -0.6344477     1.4403257
C           3.7239448     0.7838226     0.7242997
H           2.9104469     1.3485677     1.1688724
C           3.5137184     0.0704768    -0.4658556
C           4.5928324    -0.6074807    -1.0545953
H           4.4281068    -1.1289470    -1.9920263
C           5.8446533    -0.6058809    -0.4462293
H           6.6690670    -1.1473837    -0.9021844
O           2.2081221     0.0381138    -2.4292180
24
138_C13H10O_0-6-7-18 (180,) energy =    -576.6302458
C          -0.2752331     0.3270317    -1.2199928
H          -0.1714348     0.5587714    -2.2746761
C          -1.5275403     0.1692689    -0.6369373
H          -2.4242922     0.2816469    -1.2402726
C          -1.6319814    -0.1430793     0.7223357
H          -2.6101741    -0.2698868     1.1787509
C           0.8957148     0.1962807    -0.4528333
C           2.2057791     0.3043336    -1.1799351
C          -0.4771623    -0.3075214     1.4876725
H          -0.5525207    -0.5720998     2.5388729
C           6.0456535    -0.0246031     0.7410660
H           7.0250315    -0.1074671     1.2046904
C           5.0550960     0.7586844     1.3351328
H           5.2648930     1.2990301     2.2542677
C           0.7800813    -0.1476728     0.9038086
H           1.6678232    -0.3164178     1.5022066
C           3.7926965     0.8548888     0.7478756
H           3.0346204     1.4840879     1.2045573
C           3.5141053     0.1785880    -0.4495921
C           4.5282286    -0.5769718    -1.0576477
H           4.3177969    -1.0668267    -2.0030789
C           5.7793336    -0.6924147    -0.4575209
H           6.5515171    -1.2945858    -0.9286066
O           2.2207472     0.4175372    -2.4009364
