25
040_C13H12_1-0-10-9 (-165,) energy =    -502.6126897
C           2.4856230    -1.3499553    -0.7989716
C           1.2300116    -0.7597454    -1.0601178
C           0.0831242    -1.4998404    -1.3201427
C           0.1464445    -2.8906367    -1.3003896
C           1.3610137    -3.4991576    -1.0032645
C           2.5318091    -2.7722453    -0.7350260
C           3.7418670    -3.5924597    -0.3342882
C           5.7209069     1.3044054     0.3786113
C           6.0047458     0.0194856    -0.0773478
C           4.9773207    -0.8383193    -0.4723343
C           3.6262038    -0.4389869    -0.4574627
C           3.3675594     0.8602083     0.0336315
C           4.3892363     1.7177860     0.4314245
H           1.1600627     0.3198914    -1.1291854
H          -0.8507443    -0.9885613    -1.5376742
H          -0.7351669    -3.4937928    -1.4996275
H           1.4102563    -4.5844988    -0.9546822
H           4.2623426    -3.1686849     0.5300837
H           3.4284713    -4.6071800    -0.0701840
H           4.4760556    -3.6887693    -1.1444490
H           6.5200001     1.9697206     0.6938187
H           7.0336159    -0.3273186    -0.1302337
H           5.2547628    -1.8040439    -0.8683337
H           2.3458588     1.2033113     0.1470294
H           4.1383453     2.7084445     0.8018957
25
040_C13H12_1-0-10-9 (-150,) energy =    -502.6172261
C           2.4799478    -1.3532602    -0.7920228
C           1.2572880    -0.7549175    -1.1572660
C           0.1222846    -1.4998950    -1.4579801
C           0.1754361    -2.8900738    -1.3767353
C           1.3628261    -3.4994445    -0.9813198
C           2.5196930    -2.7676330    -0.6742157
C           3.7196753    -3.5485588    -0.1783336
C           5.7244319     1.2719456     0.3539825
C           6.0004666     0.0542310    -0.2668114
C           4.9628670    -0.7982459    -0.6446639
C           3.6155372    -0.4524800    -0.4341929
C           3.3611027     0.7756901     0.2084068
C           4.3954281     1.6272437     0.5899442
H           1.2148414     0.3255466    -1.2557608
H          -0.7938130    -0.9962380    -1.7546026
H          -0.6986916    -3.4938989    -1.6053640
H           1.3975362    -4.5824777    -0.8857953
H           4.2605255    -3.0186494     0.6110962
H           3.3963719    -4.5147677     0.2221768
H           4.4405480    -3.7616959    -0.9783827
H           6.5329572     1.9329203     0.6542261
H           7.0290160    -0.2375922    -0.4630132
H           5.2081091    -1.7176744    -1.1624707
H           2.3381280     1.0537787     0.4418718
H           4.1609328     2.5653277     1.0864861
25
040_C13H12_1-0-10-9 (-135,) energy =    -502.6194984
C           2.4676532    -1.3605527    -0.7687817
C           1.2871642    -0.7631346    -1.2470492
C           0.1710585    -1.5170036    -1.5981106
C           0.2118142    -2.9039092    -1.4619869
C           1.3656921    -3.5081221    -0.9678129
C           2.5017655    -2.7676154    -0.6118467
C           3.6894140    -3.5109657    -0.0368243
C           5.7150986     1.2704766     0.3063127
C           5.9691936     0.1203294    -0.4421690
C           4.9265550    -0.7396090    -0.7869590
C           3.6036196    -0.4676919    -0.3993065
C           3.3665170     0.6949182     0.3557234
C           4.4075495     1.5542695     0.7041327
H           1.2640672     0.3160639    -1.3711633
H          -0.7205371    -1.0242708    -1.9765535
H          -0.6493611    -3.5110535    -1.7282692
H           1.3880237    -4.5880193    -0.8377641
H           4.2111163    -2.9254619     0.7255320
H           3.3627740    -4.4515185     0.4188745
H           4.4286576    -3.7690240    -0.8062829
H           6.5280638     1.9385314     0.5777360
H           6.9818044    -0.1076121    -0.7650238
H           5.1373959    -1.6145875    -1.3934966
H           2.3556067     0.9125035     0.6891986
H           4.1970855     2.4428573     1.2937666
25
040_C13H12_1-0-10-9 (-120,) energy =    -502.6198030
C           2.4569825    -1.3616582    -0.7585531
C           1.3242472    -0.7713628    -1.3414263
C           0.2201429    -1.5326034    -1.7199425
C           0.2344641    -2.9109527    -1.5118999
C           1.3492775    -3.5066714    -0.9234425
C           2.4701760    -2.7585336    -0.5401781
C           3.6377485    -3.4625818     0.1173021
C           5.7279306     1.2497730     0.2797219
C           5.9325340     0.1937498    -0.6104743
C           4.8813443    -0.6620672    -0.9390581
C           3.6040286    -0.4818514    -0.3847033
C           3.4116666     0.5892381     0.5026735
C           4.4623667     1.4450983     0.8348716
H           1.3243727     0.3024873    -1.5095031
H          -0.6417090    -1.0517718    -2.1749239
H          -0.6187246    -3.5202297    -1.7984751
H           1.3509706    -4.5799613    -0.7456218
H           4.0601827    -2.8714046     0.9357333
H           3.3245324    -4.4311030     0.5204558
H           4.4544541    -3.6551565    -0.5898467
H           6.5473689     1.9158401     0.5364563
H           6.9116623     0.0393794    -1.0566230
H           5.0452492    -1.4688781    -1.6480101
H           2.4293303     0.7405343     0.9424669
H           4.2917873     2.2636532     1.5294477
25
040_C13H12_1-0-10-9 (-105,) energy =    -502.6192986
C           2.4499171    -1.3615631    -0.7865140
C           1.3659283    -0.7998824    -1.4751215
C           0.2721722    -1.5756428    -1.8594195
C           0.2548652    -2.9351412    -1.5531503
C           1.3280788    -3.5019426    -0.8650712
C           2.4350089    -2.7388277    -0.4735446
C           3.5725270    -3.3890218     0.2823820
C           5.7424758     1.2171269     0.2607561
C           5.8788436     0.2918833    -0.7760971
C           4.8174387    -0.5504162    -1.1083377
C           3.6024518    -0.4852541    -0.4092583
C           3.4755471     0.4541327     0.6248976
C           4.5371175     1.2966336     0.9597008
H           1.3902004     0.2603338    -1.7137294
H          -0.5567706    -1.1198705    -2.3943682
H          -0.5900933    -3.5537697    -1.8442345
H           1.3077172    -4.5615244    -0.6196940
H           3.8151521    -2.8370337     1.1974367
H           3.3172104    -4.4160876     0.5615029
H           4.4922983    -3.4252216    -0.3137628
H           6.5689968     1.8735959     0.5196318
H           6.8110342     0.2294803    -1.3317314
H           4.9235059    -1.2605400    -1.9245334
H           2.5373706     0.5183357     1.1700204
H           4.4209655     2.0159465     1.7663592
25
040_C13H12_1-0-10-9 (-90,) energy =    -502.6189817
C           2.4648483    -1.3477619    -0.8167834
C           1.4330824    -0.8122953    -1.5987690
C           0.3356839    -1.5870647    -1.9759941
C           0.2636121    -2.9177120    -1.5681390
C           1.2869759    -3.4587574    -0.7891072
C           2.3951829    -2.6955543    -0.4017218
C           3.4867756    -3.3127929     0.4433250
C           5.7875480     1.1801784     0.2622900
C           5.8335424     0.4224231    -0.9091690
C           4.7596673    -0.3993516    -1.2552522
C           3.6230702    -0.4774095    -0.4369538
C           3.5881097     0.2902190     0.7365351
C           4.6611621     1.1124725     1.0840546
H           1.4979363     0.2264914    -1.9123291
H          -0.4541079    -1.1524894    -2.5829804
H          -0.5844150    -3.5348738    -1.8534234
H           1.2276936    -4.4976761    -0.4721697
H           3.6109501    -2.7812952     1.3942336
H           3.2620979    -4.3599998     0.6684280
H           4.4589073    -3.2764534    -0.0623964
H           6.6229851     1.8208687     0.5318898
H           6.7051543     0.4722375    -1.5568048
H           4.7959701    -0.9847926    -2.1704729
H           2.7102204     0.2426607     1.3758485
H           4.6155248     1.7021201     1.9961140
25
040_C13H12_1-0-10-9 (-75,) energy =    -502.6192507
C           2.5587380    -1.6140991    -0.2487596
C           1.7451813    -1.9907965     0.8285916
C           0.6866776    -2.8832439     0.6582230
C           0.4314825    -3.4106133    -0.6063017
C           1.2343503    -3.0383471    -1.6848973
C           2.3022649    -2.1455072    -1.5320755
C           3.1410704    -1.7572704    -2.7294171
C           5.8032297     1.1351533     0.4598388
C           4.4869935     1.5972880     0.4184040
C           3.4384198     0.7055999     0.1853220
C           3.6872865    -0.6612161    -0.0089813
C           5.0153641    -1.1121470     0.0334724
C           6.0646528    -0.2229746     0.2677672
H           1.9541995    -1.5776115     1.8120716
H           0.0694160    -3.1633339     1.5076758
H          -0.3898997    -4.1064233    -0.7565610
H           1.0275404    -3.4451567    -2.6723479
H           4.1677966    -2.1340069    -2.6491637
H           2.7107628    -2.1583858    -3.6523846
H           3.2154344    -0.6687686    -2.8326456
H           6.6202885     1.8282123     0.6419728
H           4.2745462     2.6529873     0.5666862
H           2.4140424     1.0675207     0.1519875
H           5.2218436    -2.1702287    -0.1063556
H           7.0865148    -0.5919144     0.3038768
25
040_C13H12_1-0-10-9 (-60,) energy =    -502.6197555
C           2.5586631    -1.5881994    -0.2659363
C           1.6823826    -1.8734933     0.7928494
C           0.6155210    -2.7565786     0.6362715
C           0.4075531    -3.3686563    -0.5987016
C           1.2664000    -3.0839722    -1.6597539
C           2.3465859    -2.2026085    -1.5212055
C           3.2284762    -1.9170961    -2.7177147
C           5.7875876     1.1669418     0.4899153
C           4.4608515     1.5780302     0.6265758
C           3.4197302     0.6840920     0.3733111
C           3.6837819    -0.6365959    -0.0232340
C           5.0229839    -1.0362356    -0.1563144
C           6.0646686    -0.1445923     0.0990529
H           1.8559377    -1.3992877     1.7553928
H          -0.0452065    -2.9647285     1.4735861
H          -0.4206922    -4.0581425    -0.7399964
H           1.0924637    -3.5493978    -2.6275282
H           4.1715423    -2.4765655    -2.6775761
H           2.7219277    -2.2021920    -3.6454429
H           3.4924933    -0.8568623    -2.7835386
H           6.5993385     1.8620081     0.6873846
H           4.2342060     2.5974620     0.9281407
H           2.3876208     1.0097067     0.4737238
H           5.2473680    -2.0599878    -0.4431990
H           7.0946953    -0.4768205    -0.0021294
25
040_C13H12_1-0-10-9 (-45,) energy =    -502.6196378
C           2.5652457    -1.5717879    -0.2900775
C           1.6300108    -1.7684357     0.7416214
C           0.5514543    -2.6370665     0.5994184
C           0.3804652    -3.3251002    -0.6010170
C           1.2873796    -3.1240502    -1.6394866
C           2.3818859    -2.2570512    -1.5154540
C           3.2897732    -2.0674061    -2.7126420
C           5.7743883     1.1967647     0.5193575
C           4.4522678     1.5364271     0.8109079
C           3.4207175     0.6405844     0.5324030
C           3.6810796    -0.6110628    -0.0525548
C           5.0184918    -0.9402265    -0.3302790
C           6.0523285    -0.0469707    -0.0498497
H           1.7759563    -1.2451486     1.6826572
H          -0.1466376    -2.7757019     1.4206398
H          -0.4562926    -4.0059201    -0.7332831
H           1.1396604    -3.6428729    -2.5842589
H           4.1614338    -2.7339079    -2.6802627
H           2.7500555    -2.2934911    -3.6381700
H           3.6711532    -1.0445510    -2.7808329
H           6.5801144     1.8930793     0.7358695
H           4.2216261     2.5022316     1.2531557
H           2.3929373     0.9197169     0.7479015
H           5.2542246    -1.9154669    -0.7446303
H           7.0790926    -0.3287294    -0.2687896
25
040_C13H12_1-0-10-9 (-30,) energy =    -502.6176719
C           2.5701277    -1.5650182    -0.2988512
C           1.5747430    -1.6822306     0.6908916
C           0.4900869    -2.5423765     0.5545209
C           0.3601096    -3.3008696    -0.6075054
C           1.3128970    -3.1686206    -1.6141216
C           2.4140010    -2.3080366    -1.4976221
C           3.3390661    -2.1894432    -2.6918639
C           5.7740447     1.2131504     0.5417776
C           4.4712911     1.4769907     0.9676067
C           3.4407907     0.5867737     0.6730149
C           3.6715376    -0.5825803    -0.0770366
C           4.9968599    -0.8424310    -0.4721711
C           6.0312111     0.0450143    -0.1756215
H           1.6856116    -1.1197531     1.6128390
H          -0.2447145    -2.6187455     1.3514890
H          -0.4796605    -3.9785068    -0.7363437
H           1.1949447    -3.7348683    -2.5354621
H           4.2032182    -2.8627945    -2.6189671
H           2.8042797    -2.4590347    -3.6084342
H           3.7294973    -1.1750338    -2.8130525
H           6.5788862     1.9060422     0.7717594
H           4.2535978     2.3805164     1.5312870
H           2.4302638     0.8252678     0.9908532
H           5.2330087    -1.7664306    -0.9871558
H           7.0437712    -0.1875590    -0.4953681
25
040_C13H12_1-0-10-9 (-15,) energy =    -502.6133138
C           2.5697824    -1.5493136    -0.3020511
C           1.5113142    -1.5974729     0.6296987
C           0.4240863    -2.4526691     0.4929105
C           0.3393002    -3.2815104    -0.6231154
C           1.3399884    -3.2109639    -1.5866763
C           2.4432184    -2.3514494    -1.4712802
C           3.3839763    -2.3062412    -2.6593828
C           5.7869637     1.2355558     0.5599220
C           4.5205408     1.4075624     1.1199731
C           3.4881786     0.5241978     0.8164916
C           3.6608096    -0.5464063    -0.0867596
C           4.9614488    -0.7227452    -0.6008454
C           5.9999165     0.1580098    -0.2970873
H           1.5730591    -0.9966670     1.5298607
H          -0.3490112    -2.4682134     1.2564220
H          -0.5001318    -3.9592529    -0.7527909
H           1.2589014    -3.8250741    -2.4807689
H           4.2783071    -2.9264899    -2.5152087
H           2.8743642    -2.6905808    -3.5485712
H           3.7235978    -1.2902626    -2.8811841
H           6.5944925     1.9228459     0.7968646
H           4.3312065     2.2338969     1.8002775
H           2.5109468     0.7163068     1.2454469
H           5.1908911    -1.5820252    -1.2149450
H           6.9852817    -0.0161599    -0.7218384
25
040_C13H12_1-0-10-9 (0,) energy =    -502.6086281
C           2.5135282    -1.5073832    -0.3612042
C           1.4080390    -1.4899177     0.5192388
C           0.2901278    -2.3009765     0.3704391
C           0.2262039    -3.1914484    -0.6957953
C           1.2956724    -3.2360451    -1.5816991
C           2.4361768    -2.4264002    -1.4523433
C           3.4863097    -2.6338656    -2.5264599
C           5.7871033     1.2458392     0.5515133
C           4.6475443     1.1772480     1.3525305
C           3.6163807     0.2950052     1.0464727
C           3.6586068    -0.5698643    -0.0727550
C           4.8248940    -0.4738287    -0.8609597
C           5.8620152     0.4099644    -0.5576233
H           1.4046322    -0.8164470     1.3651451
H          -0.5224192    -2.2311271     1.0886425
H          -0.6347229    -3.8386795    -0.8385449
H           1.2560111    -3.9287231    -2.4187173
H           4.4454364    -2.9716224    -2.1174188
H           3.1487117    -3.4031046    -3.2271556
H           3.6736475    -1.7267844    -3.1124829
H           6.5939820     1.9338551     0.7880827
H           4.5540175     1.8154938     2.2274619
H           2.7645613     0.2973653     1.7133264
H           4.9548893    -1.0873085    -1.7344322
H           6.7349549     0.4360592    -1.2049672
25
040_C13H12_1-0-10-9 (15,) energy =    -502.6133131
C           2.4633854    -1.4515706    -0.4156485
C           1.3266280    -1.3564321     0.4147756
C           0.1887581    -2.1329761     0.2294103
C           0.1630678    -3.0770465    -0.7941493
C           1.2925746    -3.2326907    -1.5909467
C           2.4529598    -2.4629075    -1.4175358
C           3.6375612    -2.8324042    -2.2885404
C           5.7669177     1.2099011     0.5067607
C           4.8163475     0.8855379     1.4753393
C           3.7758156     0.0101676     1.1767240
C           3.6571659    -0.6096312    -0.0857503
C           4.6044155    -0.2280207    -1.0575091
C           5.6470081     0.6512355    -0.7638659
H           1.3018846    -0.5993508     1.1901573
H          -0.6692834    -1.9973141     0.8822974
H          -0.7143197    -3.6962220    -0.9602238
H           1.2938559    -3.9965534    -2.3653035
H           4.5832220    -2.7970255    -1.7396369
H           3.5107770    -3.8497553    -2.6719317
H           3.7413469    -2.1762682    -3.1626104
H           6.5790748     1.8941720     0.7364830
H           4.8808620     1.3162739     2.4712375
H           3.0804815    -0.2427709     1.9694331
H           4.5128094    -0.5821258    -2.0745147
H           6.3567898     0.9123735    -1.5446937
25
040_C13H12_1-0-10-9 (30,) energy =    -502.6176740
C           2.4559183    -1.4512994    -0.4287456
C           1.2875991    -1.2731157     0.3377850
C           0.1482057    -2.0472022     0.1446158
C           0.1584860    -3.0528260    -0.8203656
C           1.3173976    -3.2707930    -1.5604825
C           2.4769521    -2.5024785    -1.3819841
C           3.7005285    -2.8883575    -2.1881182
C           5.7579601     1.1866818     0.4871284
C           4.9059647     0.7335922     1.4955793
C           3.8578914    -0.1336811     1.1947264
C           3.6399148    -0.5974194    -0.1170749
C           4.4936571    -0.1060400    -1.1220398
C           5.5415801     0.7651125    -0.8246303
H           1.2586388    -0.4704102     1.0681125
H          -0.7398354    -1.8626955     0.7431586
H          -0.7200989    -3.6702230    -0.9874087
H           1.3386642    -4.0770247    -2.2905640
H           4.6281642    -2.7404455    -1.6280489
H           3.6422393    -3.9432663    -2.4754568
H           3.7872354    -2.3106384    -3.1177638
H           6.5751720     1.8639448     0.7200563
H           5.0569528     1.0548075     2.5229634
H           3.2249019    -0.4948223     1.9996002
H           4.3178628    -0.3766801    -2.1565922
H           6.1809930     1.1257901    -1.6263021
25
040_C13H12_1-0-10-9 (45,) energy =    -502.6196386
C           2.4439084    -1.4473966    -0.4280561
C           1.2436311    -1.1990888     0.2615759
C           0.1057747    -1.9743746     0.0561921
C           0.1540022    -3.0351062    -0.8473420
C           1.3425072    -3.3058335    -1.5221847
C           2.4980197    -2.5351771    -1.3324679
C           3.7571215    -2.9299765    -2.0755628
C           5.7585273     1.1663309     0.4644062
C           5.0057792     0.5964421     1.4925269
C           3.9452119    -0.2585121     1.1953149
C           3.6162391    -0.5733053    -0.1348669
C           4.3783126     0.0165998    -1.1573865
C           5.4377675     0.8743611    -0.8621862
H           1.2034703    -0.3603057     0.9511185
H          -0.8100410    -1.7490512     0.5960743
H          -0.7227388    -3.6537121    -1.0200241
H           1.3861328    -4.1484364    -2.2090126
H           4.6586413    -2.7390173    -1.4864551
H           3.7318451    -3.9955836    -2.3262966
H           3.8683661    -2.3820290    -3.0203283
H           6.5851442     1.8331494     0.6945774
H           5.2460870     0.8146280     2.5299123
H           3.3750331    -0.7101545     2.0025590
H           4.1221332    -0.1767323    -2.1944266
H           6.0075785     1.3224290    -1.6721986
25
040_C13H12_1-0-10-9 (60,) energy =    -502.6197561
C           2.4185300    -1.4324083    -0.4301057
C           1.1872911    -1.1271923     0.1709281
C           0.0540778    -1.9063713    -0.0552708
C           0.1431322    -3.0170681    -0.8928382
C           1.3639161    -3.3352480    -1.4869201
C           2.5126965    -2.5618471    -1.2749232
C           3.8140128    -2.9726691    -1.9296881
C           5.7618950     1.1516440     0.4246591
C           5.1254338     0.4558583     1.4535998
C           4.0485380    -0.3849356     1.1697530
C           3.5884065    -0.5484666    -0.1465581
C           4.2382006     0.1579559    -1.1710580
C           5.3130466     1.0008414    -0.8889207
H           1.1241552    -0.2543516     0.8156288
H          -0.8888720    -1.6454816     0.4177990
H          -0.7293223    -3.6379106    -1.0790737
H           1.4347444    -4.2123681    -2.1265545
H           4.6646337    -2.8555252    -1.2508380
H           3.7709129    -4.0194763    -2.2473271
H           4.0347291    -2.3718014    -2.8208928
H           6.6003320     1.8072837     0.6442004
H           5.4685797     0.5645778     2.4792698
H           3.5596613    -0.9310391     1.9723169
H           3.8839816     0.0593610    -2.1935583
H           5.7969664     1.5449635    -1.6959738
25
040_C13H12_1-0-10-9 (75,) energy =    -502.6192509
C           2.3982328    -1.4250298    -0.4377490
C           1.1415381    -1.0674331     0.0694943
C           0.0138494    -1.8526719    -0.1705925
C           0.1376692    -3.0156100    -0.9285433
C           1.3854774    -3.3809825    -1.4345435
C           2.5275294    -2.6037727    -1.2051725
C           3.8645851    -3.0415414    -1.7606628
C           5.7728497     1.1308934     0.3793389
C           5.2615167     0.3009331     1.3780727
C           4.1709285    -0.5283836     1.1101348
C           3.5731237    -0.5413093    -0.1588529
C           4.0979945     0.2966287    -1.1545003
C           5.1868993     1.1272029    -0.8880905
H           1.0538272    -0.1565083     0.6561380
H          -0.9514080    -1.5556333     0.2307688
H          -0.7305449    -3.6395232    -1.1243198
H           1.4804192    -4.2937032    -2.0187162
H           4.6345296    -3.0691517    -0.9812892
H           3.7934634    -4.0393476    -2.2048022
H           4.2294992    -2.3570049    -2.5357696
H           6.6213297     1.7774320     0.5871145
H           5.7116071     0.2972429     2.3675242
H           3.7750564    -1.1750626     1.8889496
H           3.6386517     0.3033947    -2.1397382
H           5.5755118     1.7745132    -1.6701270
25
040_C13H12_1-0-10-9 (90,) energy =    -502.6189811
C           2.3927320    -1.4031449    -0.4569560
C           1.1208318    -0.9885041    -0.0407456
C          -0.0076483    -1.7747765    -0.2754147
C           0.1316917    -2.9943009    -0.9354021
C           1.3949889    -3.4142840    -1.3531676
C           2.5380095    -2.6380378    -1.1259362
C           3.8925625    -3.1225696    -1.5919251
C           5.7785453     1.1445708     0.3451195
C           5.4000415     0.1691290     1.2691766
C           4.3071096    -0.6585196     1.0067673
C           3.5749105    -0.5254878    -0.1822172
C           3.9644423     0.4596959    -1.1015358
C           5.0570580     1.2884049    -0.8412254
H           1.0218873    -0.0358739     0.4733828
H          -0.9855250    -1.4352043     0.0554923
H          -0.7374481    -3.6185607    -1.1259930
H           1.5004288    -4.3665635    -1.8682947
H           4.5921351    -3.2334361    -0.7549724
H           3.8099323    -4.0917804    -2.0935227
H           4.3550647    -2.4171936    -2.2923588
H           6.6288557     1.7899078     0.5491471
H           5.9540210     0.0530827     2.1972248
H           4.0115332    -1.4141855     1.7301293
H           3.4014024     0.5765288    -2.0240153
H           5.3426594     2.0479503    -1.5645256
25
040_C13H12_1-0-10-9 (105,) energy =    -502.6192986
C           2.3909727    -1.4011876    -0.4965793
C           1.1075490    -0.9339225    -0.1816077
C          -0.0240723    -1.7168362    -0.4102217
C           0.1222470    -2.9878804    -0.9628349
C           1.3957137    -3.4597085    -1.2824618
C           2.5427135    -2.6884369    -1.0578095
C           3.9043571    -3.2318165    -1.4303868
C           5.7471763     1.1724935     0.3392067
C           5.5020030     0.0569415     1.1424408
C           4.4224914    -0.7824679     0.8659411
C           3.5707876    -0.5239715    -0.2189416
C           3.8231867     0.6044629    -1.0132742
C           4.9038474     1.4445679    -0.7389809
H           1.0034680     0.0568464     0.2532788
H          -1.0096047    -1.3354416    -0.1566301
H          -0.7490924    -3.6105167    -1.1485215
H           1.5059986    -4.4487157    -1.7218230
H           4.5225642    -3.4284263    -0.5461616
H           3.8100433    -4.1707366    -1.9849121
H           4.4641821    -2.5234843    -2.0514595
H           6.5878452     1.8267361     0.5544859
H           6.1484436    -0.1572620     1.9896927
H           4.2276718    -1.6427327     1.5013122
H           3.1671107     0.8186929    -1.8529958
H           5.0853828     2.3124396    -1.3678242
25
040_C13H12_1-0-10-9 (120,) energy =    -502.6198045
C           2.4059335    -1.3968978    -0.5113646
C           1.1169333    -0.8808746    -0.3026645
C          -0.0218634    -1.6493992    -0.5357816
C           0.1181766    -2.9592860    -0.9917658
C           1.3931036    -3.4786234    -1.2129036
C           2.5497166    -2.7228714    -0.9801651
C           3.9035516    -3.3378812    -1.2632446
C           5.7350365     1.2098827     0.3296326
C           5.6154209    -0.0092435     0.9996823
C           4.5475767    -0.8619928     0.7207494
C           3.5782236    -0.5148753    -0.2338116
C           3.7071720     0.7178036    -0.8938788
C           4.7761417     1.5710294    -0.6180448
H           1.0164256     0.1379509     0.0623897
H          -1.0080521    -1.2278474    -0.3604445
H          -0.7584461    -3.5730803    -1.1816895
H           1.4990905    -4.4951762    -1.5856174
H           4.3880160    -3.7059661    -0.3499519
H           3.8034462    -4.1910917    -1.9419722
H           4.5904605    -2.6173235    -1.7178732
H           6.5677437     1.8737211     0.5462876
H           6.3512458    -0.2947278     1.7471015
H           4.4515234    -1.7996829     1.2611197
H           2.9660783     0.9992034    -1.6374600
H           4.8601783     2.5175997    -1.1457783
25
040_C13H12_1-0-10-9 (135,) energy =    -502.6194981
C           2.4137301    -1.3978252    -0.5053514
C           1.1216411    -0.8496157    -0.4098089
C          -0.0184448    -1.6034832    -0.6728311
C           0.1167106    -2.9372317    -1.0555927
C           1.3908190    -3.4874385    -1.1769126
C           2.5517868    -2.7469309    -0.9133038
C           3.8928156    -3.4192906    -1.1215513
C           5.7377100     1.2341370     0.2976048
C           5.7200325    -0.0507815     0.8419680
C           4.6531595    -0.9103560     0.5805780
C           3.5747433    -0.5051499    -0.2239447
C           3.6104529     0.7924594    -0.7650539
C           4.6771500     1.6524744    -0.5078064
H           1.0176097     0.1842845    -0.0922255
H          -1.0024453    -1.1523715    -0.5769673
H          -0.7603045    -3.5430080    -1.2678099
H           1.4964308    -4.5208309    -1.5001966
H           4.2848312    -3.8573347    -0.1944138
H           3.7984956    -4.2362415    -1.8445224
H           4.6495607    -2.7217606    -1.4916498
H           6.5704870     1.9027593     0.4983346
H           6.5360051    -0.3854784     1.4773890
H           4.6410533    -1.8960315     1.0347060
H           2.8004688     1.1190539    -1.4113971
H           4.6825587     2.6481597    -0.9438531
25
040_C13H12_1-0-10-9 (150,) energy =    -502.6172261
C           2.4037969    -1.3955404    -0.4716315
C           1.1139355    -0.8278483    -0.4902092
C          -0.0218919    -1.5662508    -0.8036598
C           0.1082948    -2.9132896    -1.1361929
C           1.3775413    -3.4841943    -1.1606463
C           2.5365057    -2.7583741    -0.8473048
C           3.8620878    -3.4777123    -0.9925310
C           5.7429748     1.2571196     0.2667530
C           5.8028657    -0.0711492     0.6868632
C           4.7310781    -0.9343633     0.4583309
C           3.5564617    -0.4932135    -0.1779250
C           3.5242837     0.8486789    -0.6074089
C           4.5946373     1.7116652    -0.3835419
H           0.9980560     0.2120519    -0.2002490
H          -0.9991467    -1.0913443    -0.7857297
H          -0.7643187    -3.5107597    -1.3862774
H           1.4851981    -4.5268665    -1.4514109
H           4.2279229    -3.8787563    -0.0383384
H           3.7521070    -4.3288027    -1.6722779
H           4.6450406    -2.8256215    -1.3903541
H           6.5804974     1.9276796     0.4389598
H           6.6869185    -0.4422426     1.1990192
H           4.7915129    -1.9486909     0.8339375
H           2.6602090     1.2135104    -1.1538434
H           4.5353551     2.7395460    -0.7320827
25
040_C13H12_1-0-10-9 (165,) energy =    -502.6126897
C           2.4119203    -1.3994659    -0.4604329
C           1.1314926    -0.8184870    -0.5871920
C           0.0003049    -1.5445369    -0.9393073
C           0.1166736    -2.9051735    -1.2109319
C           1.3737156    -3.4950525    -1.1359591
C           2.5306678    -2.7814897    -0.7847526
C           3.8307894    -3.5582221    -0.8475875
C           5.7527420     1.2912519     0.2464858
C           5.8864235    -0.0698662     0.5090640
C           4.8179504    -0.9429521     0.3004328
C           3.5622509    -0.4895949    -0.1499970
C           3.4645539     0.8913337    -0.4319673
C           4.5289772     1.7647952    -0.2280430
H           1.0010940     0.2279931    -0.3359112
H          -0.9635191    -1.0461209    -0.9980528
H          -0.7513965    -3.4966642    -1.4890088
H           1.4772983    -4.5502717    -1.3778892
H           4.2016065    -3.8454310     0.1447028
H           3.6794716    -4.4856895    -1.4084324
H           4.6269244    -2.9946693    -1.3437768
H           6.5868381     1.9701561     0.4011855
H           6.8281942    -0.4652398     0.8810706
H           4.9573485    -1.9793700     0.5702089
H           2.5527911     1.2947750    -0.8566725
H           4.4035579     2.8193430    -0.4599613
25
040_C13H12_1-0-10-9 (180,) energy =    -502.6086281
C           2.4768945    -1.3707836    -0.6238798
C           1.2010832    -0.7952312    -0.8203886
C           0.0620482    -1.5295573    -1.1254388
C           0.1502582    -2.9117278    -1.2510916
C           1.3894643    -3.5119277    -1.0648174
C           2.5549105    -2.7911550    -0.7561065
C           3.8013544    -3.6396815    -0.5951794
C           5.7418955     1.3807065     0.3233098
C           5.9817982     0.0140320     0.2274816
C           4.9493515    -0.8756985    -0.0743876
C           3.6233156    -0.4478589    -0.2964755
C           3.4161908     0.9480017    -0.1910607
C           4.4419800     1.8383651     0.1095087
H           1.0749401     0.2752403    -0.7346620
H          -0.8859369    -1.0162887    -1.2625642
H          -0.7230048    -3.5128996    -1.4887869
H           1.4698906    -4.5918692    -1.1609398
H           4.2362593    -3.5626324     0.4079517
H           3.5525872    -4.6927496    -0.7559216
H           4.5826589    -3.3809366    -1.3189933
H           6.5449860     2.0736511     0.5583710
H           6.9826797    -0.3788105     0.3877218
H           5.2119683    -1.9168815    -0.1315269
H           2.4343414     1.3757006    -0.3439169
H           4.2172238     2.8998114     0.1761012
