22
392_C8H12N2_0-7-18-16 (-165,) energy =    -421.5797015
C           3.2231445    -0.3371807     0.8488551
H           4.2692963    -0.4068389     1.1485666
C           2.3261480    -0.3423412     2.0923337
H           2.4676156    -1.2699387     2.6598331
H           1.2648051    -0.2698085     1.8265586
H           2.5772810     0.4985904     2.7463323
H           2.9974080    -1.2023194     0.2140625
N           3.0803247     0.8602989     0.0170306
C           1.9248307     0.9370985    -0.8580671
H           1.0835694     1.4999290    -0.4227278
H           1.5793697    -0.0770796    -1.0726939
H           2.1885067     1.4068504    -1.8129938
C           5.2190627     4.2531823     1.0745560
H           5.8212256     5.1011501     1.3835840
C           4.1726857     4.3850271     0.1576492
H           3.9323932     5.3552828    -0.2704373
C           3.4241174     3.2744396    -0.2049290
H           2.6043196     3.3790638    -0.9048138
C           3.7551789     2.0173310     0.3608197
N           4.7494609     1.8941734     1.2634985
C           5.4498817     2.9819135     1.5933520
H           6.2426151     2.8221414     2.3241050
22
392_C8H12N2_0-7-18-16 (-150,) energy =    -421.5783812
C           3.2157059    -0.3307791     0.8793387
H           4.2377876    -0.4104222     1.2507167
C           2.2378618    -0.2281763     2.0564070
H           2.3186489    -1.1165617     2.6938859
H           1.1976821    -0.1531514     1.7183904
H           2.4643079     0.6502140     2.6698785
H           3.0046484    -1.2300974     0.2882813
N           3.1718916     0.8131351    -0.0389129
C           2.0080649     0.8952054    -0.9036620
H           1.1347101     1.3769487    -0.4331190
H           1.7185018    -0.1179349    -1.1962900
H           2.2508064     1.4493261    -1.8164491
C           5.2255405     4.2433615     1.0859052
H           5.8128663     5.0981628     1.4047925
C           4.0942835     4.3837642     0.2797033
H           3.7647523     5.3683185    -0.0433902
C           3.3692041     3.2606228    -0.0974197
H           2.4777698     3.3698258    -0.7027121
C           3.8180469     1.9873394     0.3277904
N           4.8910049     1.8548293     1.1330668
C           5.5623365     2.9520666     1.4870154
H           6.4225189     2.7851372     2.1351981
22
392_C8H12N2_0-7-18-16 (-135,) energy =    -421.5758247
C           3.1940765    -0.3236596     0.9134008
H           4.1928351    -0.4030047     1.3455403
C           2.1551975    -0.1202093     2.0239084
H           2.1912797    -0.9583243     2.7297105
H           1.1346998    -0.0629450     1.6283252
H           2.3577980     0.8000809     2.5825832
H           2.9935018    -1.2577581     0.3745690
N           3.2404554     0.7548628    -0.0843348
C           2.0814016     0.8354628    -0.9576226
H           1.1817382     1.2614773    -0.4816270
H           1.8333739    -0.1738347    -1.3006122
H           2.3191051     1.4409186    -1.8377990
C           5.2227077     4.2213642     1.0724699
H           5.7973907     5.0843811     1.3927080
C           4.0080875     4.3537113     0.3991538
H           3.5950797     5.3376100     0.1902267
C           3.3052657     3.2164090     0.0165518
H           2.3478788     3.3117055    -0.4816223
C           3.8645273     1.9480716     0.2879452
N           5.0186582     1.8200675     0.9713307
C           5.6647697     2.9262346     1.3419169
H           6.5941916     2.7660607     1.8881018
22
392_C8H12N2_0-7-18-16 (-120,) energy =    -421.5721841
C           3.1685377    -0.3016917     0.9551933
H           4.1449706    -0.3839693     1.4382526
C           2.0886375     0.0016746     2.0026428
H           2.0802397    -0.7840811     2.7670487
H           1.0857760     0.0459912     1.5633974
H           2.2842860     0.9562909     2.5035295
H           2.9639242    -1.2648095     0.4714518
N           3.3043268     0.7031607    -0.1122558
C           2.1616838     0.7769690    -1.0109562
H           1.2367383     1.1666283    -0.5520421
H           1.9483601    -0.2300711    -1.3848855
H           2.4084644     1.4109133    -1.8679697
C           5.2076857     4.2090706     1.0739725
H           5.7663114     5.0819957     1.3963216
C           3.9233315     4.3143768     0.5417755
H           3.4370363     5.2828385     0.4530476
C           3.2481710     3.1616772     0.1507986
H           2.2388266     3.2256820    -0.2396220
C           3.9038279     1.9187001     0.2601503
N           5.1272858     1.8126792     0.8117988
C           5.7471770     2.9280318     1.1998840
H           6.7362386     2.7897603     1.6360789
22
392_C8H12N2_0-7-18-16 (-105,) energy =    -421.5677914
C           3.1346463    -0.2759680     0.9923028
H           4.0838578    -0.3615368     1.5293995
C           2.0154215     0.1099877     1.9699765
H           1.9540403    -0.6335571     2.7731375
H           1.0346642     0.1501873     1.4832370
H           2.2078307     1.0856364     2.4298615
H           2.9252746    -1.2612259     0.5565806
N           3.3634174     0.6535850    -0.1276898
C           2.2503185     0.7242998    -1.0667118
H           1.3047342     1.1087390    -0.6465564
H           2.0542154    -0.2837399    -1.4492793
H           2.5276672     1.3593590    -1.9133145
C           5.2038163     4.1946119     1.0767234
H           5.7492537     5.0761587     1.3989375
C           3.8625034     4.2580824     0.7027461
H           3.3190743     5.1989247     0.7430580
C           3.2122552     3.0926856     0.3042229
H           2.1630117     3.1155764     0.0299424
C           3.9430463     1.8917745     0.2422486
N           5.2243139     1.8217972     0.6425615
C           5.8245208     2.9448877     1.0432959
H           6.8638484     2.8401246     1.3533634
22
392_C8H12N2_0-7-18-16 (-90,) energy =    -421.5688572
C           1.5297954    -0.9573527     0.4067554
H           1.8706538    -0.5550447     1.3673338
C           0.0050941    -0.8651200     0.3452593
H          -0.4341152    -1.3774488     1.2088541
H          -0.4037541    -1.3340777    -0.5555608
H          -0.3165456     0.1816923     0.3616492
H           1.8482358    -2.0153356     0.3742563
N           2.2022394    -0.1820591    -0.6558604
C           2.0077913    -0.7817393    -1.9805182
H           0.9481665    -0.7239559    -2.2458530
H           2.3339017    -1.8315460    -2.0343736
H           2.5741562    -0.2117287    -2.7212396
C           6.2150757     0.5805791     0.1902674
H           7.2719884     0.7436989     0.3777236
C           5.2450234     1.4744659     0.6511891
H           5.5303613     2.3665172     1.2029099
C           3.9083461     1.2214449     0.3656367
H           3.1187778     1.9002921     0.6710662
C           3.5754421     0.0582538    -0.3480986
N           4.5023673    -0.7925908    -0.8059826
C           5.7882875    -0.5254566    -0.5407613
H           6.5119841    -1.2373581    -0.9359519
22
392_C8H12N2_0-7-18-16 (-75,) energy =    -421.5715419
C           1.4964750    -0.9303802     0.3989996
H           1.8711394    -0.5243252     1.3440238
C          -0.0122813    -0.6940173     0.3209419
H          -0.5051175    -1.1360434     1.1944540
H          -0.4578940    -1.1474319    -0.5703951
H          -0.2322677     0.3786631     0.3030292
H           1.7099139    -2.0143795     0.4139604
N           2.2463757    -0.2810484    -0.6948650
C           2.0654035    -0.9728752    -1.9727914
H           1.0064946    -0.9406003    -2.2447267
H           2.3951925    -2.0227028    -1.9455018
H           2.6373143    -0.4611203    -2.7491654
C           6.2158179     0.6493210     0.1565867
H           7.2646263     0.8642270     0.3360941
C           5.1998414     1.3942838     0.7657720
H           5.4411717     2.2232285     1.4263046
C           3.8766042     1.0868111     0.4849391
H           3.0588565     1.6666681     0.9012330
C           3.5965231     0.0042863    -0.3733179
N           4.5653678    -0.6952458    -0.9772412
C           5.8388133    -0.3677412    -0.7139756
H           6.5937933    -0.9583960    -1.2315403
22
392_C8H12N2_0-7-18-16 (-60,) energy =    -421.5742384
C           1.4571754    -0.9444366     0.4078684
H           1.8947996    -0.6057656     1.3509611
C          -0.0023693    -0.4914216     0.3382088
H          -0.5663895    -0.9024957     1.1836059
H          -0.4928088    -0.8295029    -0.5807635
H          -0.0693809     0.6010470     0.3732737
H           1.5103992    -2.0468399     0.4175532
N           2.2807853    -0.4209910    -0.6965416
C           2.1148609    -1.1794397    -1.9351704
H           1.0495955    -1.2192012    -2.1806620
H           2.5017005    -2.2072244    -1.8612921
H           2.6439520    -0.6800549    -2.7480149
C           6.1929736     0.7297299     0.1192101
H           7.2297198     1.0055910     0.2836374
C           5.1515672     1.3171761     0.8481078
H           5.3596302     2.0833882     1.5907165
C           3.8438954     0.9398811     0.5882880
H           3.0129272     1.4128783     1.1020046
C           3.6020863    -0.0612611    -0.3798268
N           4.5945547    -0.6062932    -1.0973332
C           5.8503262    -0.2080090    -0.8476985
H           6.6208686    -0.6754590    -1.4598551
22
392_C8H12N2_0-7-18-16 (-45,) energy =    -421.5763642
C           1.4148341    -0.9856824     0.3950822
H           1.8998886    -0.7663346     1.3500410
C           0.0492367    -0.2962605     0.3369869
H          -0.5966302    -0.6557013     1.1468685
H          -0.4606243    -0.4976756    -0.6115770
H           0.1570100     0.7892901     0.4342708
H           1.2833442    -2.0788782     0.3617210
N           2.3129741    -0.5828225    -0.6951276
C           2.1608067    -1.3711300    -1.9134048
H           1.0937102    -1.4558649    -2.1409344
H           2.5849552    -2.3825353    -1.8194498
H           2.6627154    -0.8743217    -2.7441833
C           6.1385987     0.8284352     0.0855204
H           7.1568149     1.1715227     0.2376357
C           5.0852187     1.2628722     0.8994287
H           5.2634069     1.9752696     1.7011905
C           3.8004381     0.8043594     0.6587063
H           2.9648139     1.1691592     1.2468526
C           3.5935630    -0.1258642    -0.3890657
N           4.5979531    -0.5253569    -1.1862005
C           5.8267081    -0.0484571    -0.9467792
H           6.6041184    -0.3998946    -1.6245956
22
392_C8H12N2_0-7-18-16 (-30,) energy =    -421.5777582
C           1.3794367    -1.0296814     0.3785201
H           1.8793622    -0.9616280     1.3500229
C           0.1565761    -0.1066894     0.3468738
H          -0.5554803    -0.3805106     1.1346341
H          -0.3610539    -0.1744239    -0.6164692
H           0.4498976     0.9382515     0.4942427
H           1.0562873    -2.0748433     0.2767230
N           2.3492125    -0.7480400    -0.6807517
C           2.2139451    -1.5434638    -1.8942200
H           1.1497120    -1.6375629    -2.1322929
H           2.6429424    -2.5515867    -1.7873863
H           2.7237739    -1.0503237    -2.7217537
C           6.0632119     0.9342573     0.0747842
H           7.0563999     1.3466757     0.2189507
C           5.0076288     1.2290671     0.9453228
H           5.1585943     1.8980453     1.7891377
C           3.7539177     0.6845716     0.7184734
H           2.9207148     0.9446424     1.3617731
C           3.5804595    -0.1872658    -0.3865243
N           4.5890298    -0.4565048    -1.2358183
C           5.7833916     0.0993042    -1.0013789
H           6.5623001    -0.1490445    -1.7220292
22
392_C8H12N2_0-7-18-16 (-15,) energy =    -421.5784174
C           1.3515244    -1.0500578     0.3705047
H           1.8168732    -1.0673134     1.3623560
C           0.2580308     0.0241385     0.3137797
H          -0.5042770    -0.1598157     1.0804081
H          -0.2360938     0.0254696    -0.6641366
H           0.6766025     1.0227686     0.4771821
H           0.9004423    -2.0403895     0.2334266
N           2.3856315    -0.8897668    -0.6458996
C           2.2435050    -1.6664183    -1.8695327
H           1.1793869    -1.7539807    -2.1103594
H           2.6671617    -2.6776997    -1.7740504
H           2.7574462    -1.1665612    -2.6904197
C           6.0070371     1.0077597     0.0342321
H           6.9782185     1.4754849     0.1573212
C           4.9795114     1.1820484     0.9676625
H           5.1305858     1.8066612     1.8448448
C           3.7524885     0.5687841     0.7704053
H           2.9460158     0.7314380     1.4755459
C           3.5750122    -0.2433885    -0.3799437
N           4.5608119    -0.4035075    -1.2849652
C           5.7280098     0.2126812    -1.0723799
H           6.4861039     0.0506882    -1.8385558
22
392_C8H12N2_0-7-18-16 (0,) energy =    -421.5784432
C           1.2528232    -0.9806929     0.4488825
H           1.6267800    -0.9830182     1.4786169
C           0.2707324     0.1818080     0.2423936
H          -0.5583861     0.1168663     0.9570974
H          -0.1507125     0.1622136    -0.7686278
H           0.7670497     1.1481282     0.3806160
H           0.7244963    -1.9321456     0.3185543
N           2.3852741    -0.9845305    -0.4666995
C           2.2263698    -1.6419323    -1.7576669
H           1.4712297    -2.4275617    -1.6606125
H           3.1732709    -2.0839749    -2.0692834
H           1.9078496    -0.9462606    -2.5479358
C           5.8879542     1.1415333     0.1764234
H           6.8301443     1.6675536     0.2890405
C           4.8667443     1.2428301     1.1267015
H           4.9943917     1.8626082     2.0110249
C           3.6744576     0.5609187     0.9399605
H           2.8791728     0.6596061     1.6685267
C           3.5255601    -0.2473196    -0.2175994
N           4.4993796    -0.3222782    -1.1471845
C           5.6358489     0.3489011    -0.9385275
H           6.3873593     0.2456217    -1.7212160
22
392_C8H12N2_0-7-18-16 (15,) energy =    -421.5787485
C           1.2356315    -0.9744398     0.4533057
H           1.5394649    -0.9777015     1.5056211
C           0.3561034     0.2493289     0.1589148
H          -0.5181291     0.2618186     0.8205650
H          -0.0028515     0.2347506    -0.8760083
H           0.9124394     1.1803005     0.3101587
H           0.6524880    -1.8905155     0.3089492
N           2.4227594    -1.0861538    -0.3875139
C           2.2541276    -1.7028175    -1.6985396
H           1.4948667    -2.4863933    -1.6180153
H           3.1966781    -2.1435728    -2.0239223
H           1.9407446    -0.9850452    -2.4712218
C           5.8362920     1.2104309     0.1576242
H           6.7545855     1.7819987     0.2426911
C           4.8752715     1.1993144     1.1738411
H           5.0301717     1.7698299     2.0864601
C           3.7127584     0.4598685     1.0216874
H           2.9695378     0.4582383     1.8095857
C           3.5279295    -0.2810014    -0.1741973
N           4.4469444    -0.2577517    -1.1598008
C           5.5591281     0.4618942    -0.9812413
H           6.2668689     0.4381469    -1.8097876
22
392_C8H12N2_0-7-18-16 (30,) energy =    -421.5780437
C           1.2194822    -0.9458685     0.4611579
H           1.4624165    -0.9035053     1.5278375
C           0.4130531     0.2961241     0.0569326
H          -0.4970146     0.3752657     0.6632336
H           0.1144438     0.2490402    -0.9959301
H           1.0001730     1.2090687     0.2023621
H           0.6077382    -1.8453015     0.3317340
N           2.4485053    -1.1534692    -0.3058195
C           2.2786238    -1.7602436    -1.6230022
H           1.5320609    -2.5561497    -1.5405814
H           3.2251259    -2.1864221    -1.9561665
H           1.9521146    -1.0439955    -2.3914679
C           5.7934576     1.2678790     0.1440778
H           6.6907595     1.8750327     0.2038952
C           4.9197786     1.1321218     1.2287555
H           5.1277181     1.6321993     2.1715596
C           3.7845438     0.3470038     1.1074861
H           3.1155021     0.2314325     1.9519687
C           3.5298402    -0.2984935    -0.1288834
N           4.3694469    -0.1670411    -1.1727048
C           5.4634059     0.5886505    -1.0229187
H           6.1078466     0.6540776    -1.8993341
22
392_C8H12N2_0-7-18-16 (45,) energy =    -421.5765125
C           1.1925488    -0.8856485     0.4654947
H           1.4047291    -0.7228493     1.5265162
C           0.4158614     0.3139615    -0.0945419
H          -0.5087420     0.4668962     0.4744974
H           0.1428730     0.1614516    -1.1440865
H           1.0120669     1.2304591    -0.0284566
H           0.5731687    -1.7886607     0.4177075
N           2.4478096    -1.1890060    -0.2324408
C           2.2766474    -1.7979676    -1.5497698
H           1.5284871    -2.5925190    -1.4620820
H           3.2225935    -2.2306905    -1.8778665
H           1.9547934    -1.0877935    -2.3248732
C           5.7589555     1.2979153     0.1342828
H           6.6422388     1.9271685     0.1724471
C           4.9998172     1.0219977     1.2779272
H           5.2905157     1.4259452     2.2445859
C           3.8832555     0.2079070     1.1811012
H           3.3087830    -0.0384630     2.0670907
C           3.5220524    -0.3078828    -0.0874043
N           4.2575692    -0.0547529    -1.1831890
C           5.3431639     0.7201802    -1.0590526
H           5.9050190     0.8872013    -1.9776517
22
392_C8H12N2_0-7-18-16 (60,) energy =    -421.5742636
C           1.1739058    -0.8132080     0.4602237
H           1.3698420    -0.5271043     1.4986772
C           0.4275492     0.3261396    -0.2479405
H          -0.4924920     0.5682254     0.2970620
H           0.1480435     0.0557317    -1.2713717
H           1.0447571     1.2300495    -0.2927770
H           0.5406971    -1.7077690     0.5015065
N           2.4487476    -1.2111358    -0.1585191
C           2.2922067    -1.8393430    -1.4698540
H           1.5475268    -2.6372190    -1.3756894
H           3.2438099    -2.2770501    -1.7775776
H           1.9771455    -1.1472364    -2.2627100
C           5.7265312     1.3293645     0.1643660
H           6.5962407     1.9780103     0.1940007
C           5.0892318     0.8998910     1.3350636
H           5.4664990     1.1959212     2.3107380
C           3.9907207     0.0605701     1.2425723
H           3.5068287    -0.3231752     2.1348368
C           3.5187960    -0.3082432    -0.0378403
N           4.1419375     0.0822172    -1.1597996
C           5.2180204     0.8741218    -1.0461505
H           5.6921770     1.1580179    -1.9851004
22
392_C8H12N2_0-7-18-16 (75,) energy =    -421.5712422
C           1.1438211    -0.7421992     0.4438529
H           1.3183309    -0.3779117     1.4628074
C           0.4597936     0.3596953    -0.3777085
H          -0.4664633     0.6730177     0.1183831
H           0.1985625     0.0168473    -1.3840065
H           1.1070543     1.2374105    -0.4782549
H           0.4773210    -1.6093760     0.5330795
N           2.4317264    -1.2354825    -0.0805632
C           2.3056938    -1.9056870    -1.3761743
H           1.5582859    -2.7006427    -1.2742979
H           3.2638680    -2.3601139    -1.6402263
H           2.0134283    -1.2438864    -2.2020866
C           5.6782465     1.3612734     0.1658710
H           6.5338529     2.0292485     0.1782020
C           5.1812251     0.7857116     1.3404096
H           5.6551440     0.9840982     2.2984231
C           4.0968589    -0.0761803     1.2626053
H           3.7091454    -0.5784219     2.1432644
C           3.5010190    -0.3112206     0.0071130
N           3.9902244     0.2178317    -1.1228118
C           5.0548394     1.0280133    -1.0321562
H           5.4229757     1.4298645    -1.9754719
22
392_C8H12N2_0-7-18-16 (90,) energy =    -421.5681424
C           1.1105457    -0.6746525     0.4014198
H           1.2536224    -0.2308429     1.3943090
C           0.4789029     0.3663020    -0.5343842
H          -0.4532562     0.7405669    -0.0942755
H           0.2364576    -0.0593606    -1.5135685
H           1.1488842     1.2164848    -0.6955914
H           0.4216188    -1.5192517     0.5333118
N           2.4098033    -1.2413189    -0.0130413
C           2.3357637    -1.9780019    -1.2780703
H           1.5602575    -2.7463213    -1.1804673
H           3.2923657    -2.4781576    -1.4565625
H           2.1124328    -1.3549329    -2.1541646
C           5.6472824     1.3822768     0.1704518
H           6.4913577     2.0651773     0.1686898
C           5.2996017     0.6544716     1.3111890
H           5.8780625     0.7475214     2.2267999
C           4.2195485    -0.2184634     1.2471717
H           3.9297086    -0.8327569     2.0934247
C           3.4900230    -0.3127990     0.0501038
N           3.8327158     0.3691420    -1.0519210
C           4.8888013     1.1908411    -0.9820552
H           5.1376913     1.7222515    -1.8998888
22
392_C8H12N2_0-7-18-16 (105,) energy =    -421.5684445
C           1.2101795     0.0107522    -0.0998492
H           1.3879667     1.0735500     0.0816791
C          -0.0382750    -0.1425036    -0.9683201
H          -0.8921025     0.3402506    -0.4792251
H          -0.3083016    -1.1908985    -1.1348945
H           0.1174504     0.3313211    -1.9427909
H           1.0517167    -0.4723806     0.8828036
N           2.4296565    -0.5216023    -0.7347911
C           2.4317643    -1.9776574    -0.8171539
H           2.3065473    -2.4798079     0.1606835
H           3.3676197    -2.3202966    -1.2669722
H           1.6124002    -2.3053067    -1.4630458
C           5.8518154     1.3650803     0.7192141
H           6.7227727     1.9186425     1.0559382
C           5.6289801     0.0442941     1.1040629
H           6.3194582    -0.4630515     1.7733465
C           4.4915887    -0.6155836     0.6447607
H           4.2897043    -1.6357282     0.9523346
C           3.6225012     0.0575910    -0.2329548
N           3.8152682     1.3434865    -0.5727512
C           4.8997524     1.9659101    -0.1060462
H           5.0162005     3.0052076    -0.4119890
22
392_C8H12N2_0-7-18-16 (120,) energy =    -421.5722658
C           1.1655040     0.0163834    -0.1007126
H           1.3744109     1.0602056     0.1400262
C           0.0188928    -0.0428873    -1.1102696
H          -0.8733667     0.4355534    -0.6899325
H          -0.2554635    -1.0703052    -1.3742640
H           0.2958649     0.4838080    -2.0288619
H           0.8762512    -0.4932743     0.8359612
N           2.4196287    -0.5651499    -0.6118406
C           2.4075963    -2.0203104    -0.6351681
H           2.3315124    -2.4768231     0.3689526
H           3.3133428    -2.3944836    -1.1204427
H           1.5509397    -2.3634258    -1.2213527
C           5.8535317     1.4039191     0.6773561
H           6.7250043     1.9783509     0.9748055
C           5.7368806     0.0444430     0.9633256
H           6.5166324    -0.4753115     1.5147745
C           4.5950545    -0.6443942     0.5643201
H           4.4806707    -1.6944743     0.8070339
C           3.6031615     0.0463042    -0.1606109
N           3.6972966     1.3669127    -0.4023367
C           4.7901947     2.0116314     0.0083970
H           4.8188904     3.0781558    -0.2135033
22
392_C8H12N2_0-7-18-16 (135,) energy =    -421.5755627
C           1.0905476    -0.0244604    -0.0950946
H           1.3263984     0.9863408     0.2395034
C           0.0899272     0.0458404    -1.2496756
H          -0.8421035     0.5159059    -0.9142295
H          -0.1632934    -0.9469688    -1.6394847
H           0.5028960     0.6385928    -2.0717507
H           0.6515585    -0.5686461     0.7580744
N           2.3591794    -0.6664744    -0.4731726
C           2.3195030    -2.1186160    -0.4644153
H           2.3154758    -2.5504848     0.5524232
H           3.1745080    -2.5260409    -1.0118117
H           1.4111165    -2.4524873    -0.9729156
C           5.8411420     1.3283765     0.6094272
H           6.7234019     1.9087865     0.8590452
C           5.7879257    -0.0522093     0.8039095
H           6.6342939    -0.5836346     1.2323289
C           4.6320611    -0.7511143     0.4738520
H           4.5737449    -1.8182733     0.6513601
C           3.5475722    -0.0424900    -0.0888535
N           3.5861583     1.2948856    -0.2455446
C           4.6998086     1.9442753     0.0970050
H           4.6775856     3.0238021    -0.0507454
22
392_C8H12N2_0-7-18-16 (150,) energy =    -421.5779246
C           1.0189012    -0.0601398    -0.0716614
H           1.2357306     0.9020495     0.3937412
C           0.2212513     0.1621561    -1.3584895
H          -0.7404723     0.6395492    -1.1350695
H           0.0136223    -0.7817168    -1.8766939
H           0.7811436     0.8095131    -2.0403551
H           0.4312675    -0.6557025     0.6431673
N           2.2981261    -0.7420546    -0.3022708
C           2.2514263    -2.1919319    -0.3039864
H           2.3094383    -2.6307503     0.7070977
H           3.0670471    -2.6045196    -0.9062044
H           1.3108125    -2.5142373    -0.7584819
C           5.8041915     1.3139283     0.5270832
H           6.6911977     1.9087931     0.7185158
C           5.8084026    -0.0777581     0.6477930
H           6.7096865    -0.6026487     0.9552955
C           4.6478991    -0.7976644     0.3971373
H           4.6390431    -1.8740230     0.5197929
C           3.4867364    -0.0947665    -0.0054421
N           3.4748057     1.2499224    -0.0976518
C           4.6012779     1.9161365     0.1651773
H           4.5343101     3.0003283     0.0764765
22
392_C8H12N2_0-7-18-16 (165,) energy =    -421.5792901
C           0.9911219    -0.1204263    -0.0589679
H           1.1389036     0.7915104     0.5220083
C           0.4380599     0.2359539    -1.4417317
H          -0.5320529     0.7394340    -1.3492672
H           0.2972806    -0.6582181    -2.0607670
H           1.1294305     0.9080382    -1.9585722
H           0.2783306    -0.7533741     0.4852772
N           2.2701326    -0.8325462    -0.1139689
C           2.2471048    -2.2816257    -0.1506855
H           2.4255839    -2.7394703     0.8360189
H           2.9978530    -2.6717726    -0.8478543
H           1.2670995    -2.6109322    -0.5042049
C           5.7758845     1.3071021     0.4203570
H           6.6611472     1.9218211     0.5449074
C           5.8288219    -0.0876008     0.5019934
H           6.7695444    -0.5937607     0.7052760
C           4.6723693    -0.8357393     0.3381101
H           4.7051297    -1.9150292     0.4263387
C           3.4563256    -0.1559093     0.0737983
N           3.4014368     1.1901997     0.0080882
C           4.5306484     1.8820227     0.1814353
H           4.4278145     2.9653919     0.1205087
22
392_C8H12N2_0-7-18-16 (180,) energy =    -421.5798216
C           3.2230253    -0.3201767     0.8343965
H           4.2846019    -0.3535738     1.0839299
C           2.3891790    -0.4691414     2.1115714
H           2.6022217    -1.4290323     2.5975637
H           1.3144070    -0.4306188     1.8972473
H           2.6313179     0.3331950     2.8149135
H           3.0141416    -1.1472480     0.1450251
N           2.9749607     0.9272966     0.1107389
C           1.8626619     0.9901756    -0.8184007
H           1.0922701     1.7080336    -0.5014085
H           1.3974479     0.0041506    -0.8794900
H           2.1898109     1.2702184    -1.8299043
C           5.2131098     4.2802692     1.0638400
H           5.8325233     5.1220691     1.3550600
C           4.2416667     4.3884860     0.0641590
H           4.0853977     5.3316261    -0.4540248
C           3.4700811     3.2871173    -0.2751178
H           2.7198736     3.3679584    -1.0523076
C           3.6912239     2.0655430     0.4113222
N           4.6234335     1.9615150     1.3808065
C           5.3526026     3.0397806     1.6798568
H           6.0920503     2.8979385     2.4679297
