25
094_C11H12N2_21-0-12-13 (-165,) energy =    -535.8875407
C           3.0893089    -1.2451523    -1.6562155
H           3.6208706    -1.4055647    -2.6009615
H           2.9787305    -2.2368536    -1.2015805
C           5.8615936     0.9193631     0.8801325
H           6.5791652     1.4357536     1.5119323
C           4.5150611     1.2672551     0.9264292
H           4.1931580     2.0541947     1.6043225
C           3.5400998     0.6335518     0.1364465
C           2.1014334     1.0750955     0.3125924
H           2.0381145     1.8213850     1.1103442
H           1.4429400     0.2444009     0.5845185
H           1.6831423     1.5233425    -0.5942534
C           3.9689885    -0.3775990    -0.7507457
C           5.3279260    -0.7300296    -0.7788695
H           5.6500462    -1.5183174    -1.4575393
C           6.2739344    -0.0981445     0.0213580
H           7.3181436    -0.3937481    -0.0307647
C          -0.4378328    -0.5701983    -2.0915785
H          -1.5078676    -0.6690793    -1.9668320
C           0.5550422    -1.2989362    -1.4859737
H           0.5378225    -2.1094400    -0.7720182
N           1.7432190    -0.7936760    -1.9776529
C           1.4029759     0.1989836    -2.8559227
H           2.1531486     0.7635076    -3.3951441
N           0.1000885     0.3655099    -2.9473264
25
094_C11H12N2_21-0-12-13 (-150,) energy =    -535.8898863
C           3.0151111    -1.3553401    -1.4568737
H           3.5476156    -1.7826964    -2.3141022
H           2.7542875    -2.1989002    -0.8057584
C           5.8960929     1.0507286     0.7020541
H           6.6338200     1.6321683     1.2483963
C           4.5383186     1.3170343     0.8663038
H           4.2290420     2.1015626     1.5529135
C           3.5439055     0.5943583     0.1898908
C           2.0956057     0.9169998     0.4910275
H           2.0347631     1.6064582     1.3386725
H           1.5201608     0.0220804     0.7502316
H           1.5846841     1.3849318    -0.3572110
C           3.9554350    -0.4113053    -0.7138313
C           5.3230124    -0.6901976    -0.8495899
H           5.6323580    -1.4809761    -1.5304297
C           6.2939843     0.0282246    -0.1562050
H           7.3461367    -0.2065388    -0.2911596
C          -0.3828501    -0.4477014    -2.3152494
H          -1.4637799    -0.4871231    -2.3359299
C           0.4794275    -1.2563582    -1.6180702
H           0.3228505    -2.0922733    -0.9519866
N           1.7478413    -0.7997094    -1.9200896
C           1.5826666     0.2453865    -2.7875686
H           2.4268411     0.7913169    -3.1885787
N           0.3140157     0.4910134    -3.0433367
25
094_C11H12N2_21-0-12-13 (-135,) energy =    -535.8924113
C           2.9342754    -1.4279280    -1.2667368
H           3.4484881    -2.0421247    -2.0148780
H           2.5587280    -2.1161685    -0.4992217
C           5.8982765     1.1435257     0.5473712
H           6.6510465     1.7741480     1.0126902
C           4.5489052     1.3373543     0.8433311
H           4.2627083     2.1146077     1.5480426
C           3.5428121     0.5478387     0.2720370
C           2.1046005     0.7830344     0.6764641
H           2.0578550     1.4458692     1.5459348
H           1.5960551    -0.1508473     0.9428133
H           1.5191272     1.2419433    -0.1279558
C           3.9238972    -0.4533570    -0.6500397
C           5.2825089    -0.6563432    -0.9219037
H           5.5689074    -1.4422387    -1.6176634
C           6.2710134     0.1330455    -0.3355617
H           7.3175029    -0.0405657    -0.5700244
C          -0.2993335    -0.4046980    -2.5375385
H          -1.3701341    -0.4099683    -2.6922206
C           0.4431583    -1.2338311    -1.7345029
H           0.1779879    -2.0589548    -1.0896578
N           1.7525771    -0.8152569    -1.8733857
C           1.7302294     0.2292830    -2.7572294
H           2.6330781     0.7508404    -3.0460862
N           0.5116814     0.5094954    -3.1722847
25
094_C11H12N2_21-0-12-13 (-120,) energy =    -535.8938497
C           2.8429099    -1.4522747    -1.1113844
H           3.3356308    -2.1910878    -1.7543099
H           2.3732686    -2.0067677    -0.2905282
C           5.8810478     1.2055216     0.4241602
H           6.6486087     1.8670977     0.8166492
C           4.5608002     1.3394419     0.8568851
H           4.3124944     2.1039412     1.5893325
C           3.5411657     0.5085799     0.3788404
C           2.1292347     0.6847086     0.8880466
H           2.1076380     1.3783799     1.7338451
H           1.6952603    -0.2645453     1.2265702
H           1.4625165     1.0776523     0.1121228
C           3.8749907    -0.4807674    -0.5730681
C           5.2029084    -0.6156152    -0.9928681
H           5.4515306    -1.3867804    -1.7187618
C           6.2076399     0.2197726    -0.5039218
H           7.2315063     0.0991697    -0.8464775
C          -0.2051487    -0.3668436    -2.7418937
H          -1.2545844    -0.3435101    -3.0043387
C           0.4213685    -1.1852161    -1.8355331
H           0.0630477    -1.9750604    -1.1915053
N           1.7525991    -0.8143060    -1.8546046
C           1.8573449     0.1940732    -2.7743729
H           2.8022471     0.6750749    -2.9876057
N           0.6980155     0.4946544    -3.3231479
25
094_C11H12N2_21-0-12-13 (-105,) energy =    -535.8940569
C           2.7545286    -1.4416412    -0.9900110
H           3.2231288    -2.2785828    -1.5216235
H           2.1972686    -1.8664525    -0.1488801
C           5.8615725     1.2464355     0.3341865
H           6.6435664     1.9239328     0.6664654
C           4.5859760     1.3277801     0.8953796
H           4.3855830     2.0709541     1.6635277
C           3.5520591     0.4746170     0.4941399
C           2.1842083     0.5921372     1.1260179
H           2.1639346     1.4006772     1.8625117
H           1.8963150    -0.3319436     1.6452072
H           1.4076366     0.7954787     0.3801077
C           3.8253846    -0.4880318    -0.5019583
C           5.1061923    -0.5637094    -1.0596216
H           5.3065469    -1.3106066    -1.8248830
C           6.1259161     0.2957667    -0.6491271
H           7.1140720     0.2209262    -1.0941690
C          -0.0797197    -0.3726835    -2.9793077
H          -1.0967549    -0.3414670    -3.3474754
C           0.4284003    -1.1466693    -1.9660940
H          -0.0152097    -1.8868817    -1.3161365
N           1.7656550    -0.8081968    -1.8715121
C           1.9909823     0.1385955    -2.8346812
H           2.9647132     0.5856261    -2.9783843
N           0.9017039     0.4292052    -3.5161807
25
094_C11H12N2_21-0-12-13 (-90,) energy =    -535.8930599
C           2.6114129    -1.3667009    -0.8823681
H           3.0286825    -2.2991468    -1.2828814
H           1.9864018    -1.6355060    -0.0263622
C           5.8655680     1.2515040     0.2033118
H           6.6833333     1.9142705     0.4732491
C           4.6577910     1.3195966     0.8986775
H           4.5437341     2.0399575     1.7052219
C           3.5799124     0.4853129     0.5790813
C           2.2801761     0.6039261     1.3429932
H           2.3225826     1.4330190     2.0552649
H           2.0570851    -0.3069404     1.9142841
H           1.4309917     0.7820258     0.6730966
C           3.7423947    -0.4511270    -0.4635369
C           4.9539741    -0.5074261    -1.1624270
H           5.0665984    -1.2294904    -1.9684369
C           6.0161995     0.3354080    -0.8362231
H           6.9497908     0.2745904    -1.3882579
C           0.0148788    -0.4529633    -3.2370201
H          -0.9442545    -0.4866805    -3.7370142
C           0.4380548    -1.2053466    -2.1702029
H          -0.0347784    -1.9839586    -1.5892716
N           1.7248032    -0.7784459    -1.8973763
C           2.0073788     0.1978884    -2.8155189
H           2.9564475     0.7136286    -2.8282332
N           0.9988867     0.4235042    -3.6330521
25
094_C11H12N2_21-0-12-13 (-75,) energy =    -535.8924038
C           2.3978092    -1.2380296    -0.6963952
H           2.6955097    -2.2737938    -0.8918960
H           1.7168846    -1.2567704     0.1600837
C           5.9523736     1.0900258     0.0705614
H           6.8488675     1.6737430     0.2614591
C           4.8247389     1.2672682     0.8704177
H           4.8507236     1.9928270     1.6799226
C           3.6486039     0.5349574     0.6556252
C           2.4490882     0.7716238     1.5491590
H           2.6303360     1.6157473     2.2209316
H           2.2248214    -0.1010772     2.1760189
H           1.5442245     0.9974689     0.9728130
C           3.6280313    -0.4041917    -0.3953445
C           4.7634662    -0.5727578    -1.1981357
H           4.7311613    -1.2935757    -2.0121244
C           5.9228501     0.1655001    -0.9736902
H           6.7935715     0.0195691    -1.6066692
C           0.2752853    -0.7080778    -3.5823941
H          -0.4183251    -0.9467335    -4.3779585
C           0.8382415    -1.5629244    -2.6679290
H           0.7393223    -2.6256565    -2.5005926
N           1.6640160    -0.7800423    -1.8831850
C           1.5452347     0.4987952    -2.3580621
H           2.0991338     1.3213616    -1.9279620
N           0.7229591     0.5781544    -3.3843299
25
094_C11H12N2_21-0-12-13 (-60,) energy =    -535.8921839
C           2.2378314    -1.0781794    -0.6254680
H           2.4442723    -2.1539632    -0.6433897
H           1.5099528    -0.9090197     0.1729187
C           5.9554362     1.0234306     0.0339707
H           6.8935583     1.5465044     0.1988194
C           4.9004798     1.1900730     0.9284327
H           5.0244367     1.8461504     1.7867308
C           3.6728020     0.5351457     0.7502648
C           2.5633309     0.7564481     1.7577478
H           2.8654487     1.4976486     2.5034520
H           2.3058513    -0.1628251     2.2987271
H           1.6431512     1.1229670     1.2866525
C           3.5231671    -0.3111298    -0.3663165
C           4.5885641    -0.4736982    -1.2619445
H           4.4564823    -1.1218814    -2.1251352
C           5.7994958     0.1859480    -1.0712309
H           6.6127372     0.0475474    -1.7781343
C           0.4865678    -0.8855698    -3.7903682
H          -0.0572831    -1.2221819    -4.6630821
C           1.0108214    -1.6467099    -2.7758286
H           1.0129136    -2.7095725    -2.5824587
N           1.6211543    -0.7533771    -1.9150007
C           1.4232404     0.4909879    -2.4501916
H           1.8109569     1.3833367    -1.9778193
N           0.7493579     0.4495448    -3.5808826
25
094_C11H12N2_21-0-12-13 (-45,) energy =    -535.8925119
C           2.0395066    -0.8590486    -0.5509383
H           2.0965448    -1.9372575    -0.3631027
H           1.3105916    -0.4595192     0.1587806
C           5.9668978     0.8712983    -0.0092742
H           6.9561438     1.2987433     0.1305254
C           4.9894654     1.0446161     0.9686619
H           5.2252771     1.6089352     1.8679062
C           3.7007546     0.5116681     0.8242142
C           2.6842490     0.7239167     1.9268272
H           3.1098261     1.3348163     2.7283319
H           2.3561604    -0.2215839     2.3768064
H           1.7841507     1.2392404     1.5681373
C           3.4024317    -0.2112573    -0.3486116
C           4.3910980    -0.3878262    -1.3243637
H           4.1487481    -0.9400990    -2.2287136
C           5.6662327     0.1493901    -1.1640578
H           6.4171384     0.0055936    -1.9359668
C           0.8217963    -1.0478048    -3.9580783
H           0.5516934    -1.4831560    -4.9109545
C           1.3373759    -1.6813518    -2.8547511
H           1.5881501    -2.7121816    -2.6507239
N           1.5002570    -0.6949598    -1.8994894
C           1.0808257     0.4716924    -2.4782675
H           1.1113544     1.4143514    -1.9473180
N           0.6637005     0.2980208    -3.7147082
25
094_C11H12N2_21-0-12-13 (-30,) energy =    -535.8933046
C           1.9319561    -0.6441653    -0.5708674
H           1.8741587    -1.6780142    -0.2091897
H           1.2179005    -0.0715585     0.0287382
C           5.9667238     0.8275984    -0.0438761
H           6.9807767     1.1912843     0.0984640
C           5.0344857     0.9436255     0.9866303
H           5.3297986     1.3979097     1.9296731
C           3.7180852     0.4890133     0.8391832
C           2.7474933     0.6246975     1.9925682
H           3.2383378     1.0772977     2.8591283
H           2.3459672    -0.3452047     2.3127933
H           1.8875861     1.2581024     1.7371051
C           3.3399476    -0.0910809    -0.3897557
C           4.2820875    -0.2150721    -1.4162182
H           3.9832382    -0.6619567    -2.3600955
C           5.5887677     0.2433623    -1.2513968
H           6.3036843     0.1441114    -2.0635141
C           0.9369425    -1.2203992    -4.0029075
H           0.7534121    -1.7560086    -4.9248000
C           1.4116280    -1.7192194    -2.8152363
H           1.7065117    -2.7097137    -2.5005218
N           1.4532440    -0.6427133    -1.9481487
C           1.0110788     0.4394422    -2.6595667
H           0.9512910     1.4254330    -2.2168525
N           0.6878075     0.1297385    -3.8971898
25
094_C11H12N2_21-0-12-13 (-15,) energy =    -535.8940443
C           1.8623862    -0.4378144    -0.5713119
H           1.6909709    -1.3955922    -0.0641375
H           1.1862861     0.2801488    -0.0937800
C           5.9820430     0.7714925    -0.0339656
H           7.0154604     1.0726494     0.1148954
C           5.0806461     0.8259602     1.0295980
H           5.4187867     1.1697113     2.0045532
C           3.7425963     0.4477007     0.8733921
C           2.7969873     0.5128111     2.0519223
H           3.3203565     0.8464108     2.9526895
H           2.3469375    -0.4634471     2.2750660
H           1.9677970     1.2116514     1.8769962
C           3.3087578     0.0074953    -0.3953815
C           4.2168652    -0.0529798    -1.4558863
H           3.8785348    -0.3944994    -2.4292745
C           5.5479896     0.3288937    -1.2813185
H           6.2380284     0.2794131    -2.1191217
C           1.0281467    -1.3775203    -3.9620456
H           0.9064224    -2.0041499    -4.8355396
C           1.4731698    -1.7419468    -2.7155753
H           1.8043653    -2.6826030    -2.3003761
N           1.4284871    -0.5897198    -1.9521422
C           0.9706126     0.4003774    -2.7790796
H           0.8451933     1.4179652    -2.4315359
N           0.7143131    -0.0367297    -3.9933583
25
094_C11H12N2_21-0-12-13 (0,) energy =    -535.8944537
C           1.8212029    -0.2366943    -0.6293479
H           1.5425969    -1.0941768    -0.0045182
H           1.1993442     0.5988161    -0.2850347
C           6.0047100     0.7136742    -0.0662688
H           7.0528348     0.9546326     0.0892325
C           5.1237652     0.7037398     1.0160283
H           5.4921563     0.9378609     2.0122946
C           3.7688273     0.3979402     0.8511328
C           2.8417894     0.3971255     2.0454573
H           3.3826210     0.6588673     2.9595382
H           2.3784872    -0.5854968     2.2070866
H           2.0212387     1.1180245     1.9306368
C           3.2962488     0.0959882    -0.4442230
C           4.1813402     0.1066711    -1.5250752
H           3.8141522    -0.1275892    -2.5191890
C           5.5307901     0.4140671    -1.3411033
H           6.2040059     0.4180057    -2.1939134
C           1.0947467    -1.5261344    -3.9261825
H           1.0170476    -2.2375251    -4.7375907
C           1.5281878    -1.7519811    -2.6435261
H           1.8930309    -2.6331368    -2.1364199
N           1.4213854    -0.5353984    -1.9950333
C           0.9401823     0.3516104    -2.9203711
H           0.7635818     1.3905842    -2.6721890
N           0.7278015    -0.2085753    -4.0916026
25
094_C11H12N2_21-0-12-13 (15,) energy =    -535.8943893
C           1.7892548    -0.0384897    -0.6789575
H           1.4096901    -0.7740445     0.0394523
H           1.2353127     0.8884676    -0.4831454
C           6.0156039     0.6565301    -0.0670364
H           7.0741932     0.8376491     0.0985020
C           5.1442733     0.5763152     1.0196892
H           5.5305708     0.6969614     2.0292672
C           3.7759974     0.3423830     0.8433912
C           2.8614244     0.2724869     2.0459360
H           3.4189827     0.4527585     2.9696563
H           2.3786582    -0.7095559     2.1408160
H           2.0567238     1.0176921     1.9963155
C           3.2815794     0.1833988    -0.4687611
C           4.1566908     0.2720151    -1.5548078
H           3.7709303     0.1497049    -2.5620862
C           5.5188209     0.5053131    -1.3596149
H           6.1841436     0.5674472    -2.2163518
C           1.1284044    -1.6730033    -3.8340579
H           1.0823365    -2.4633903    -4.5714332
C           1.5751501    -1.7517790    -2.5385703
H           1.9850072    -2.5606711    -1.9519337
N           1.4172095    -0.4828703    -2.0130567
C           0.8924483     0.2857146    -3.0174772
H           0.6672864     1.3345119    -2.8698366
N           0.7020029    -0.3959871    -4.1263463
25
094_C11H12N2_21-0-12-13 (30,) energy =    -535.8939524
C           1.7673463     0.1895152    -0.7386091
H           1.2894619    -0.4030974     0.0479066
H           1.2941034     1.1791151    -0.7082148
C           6.0139136     0.6254676    -0.0347279
H           7.0784617     0.7432638     0.1488831
C           5.1365247     0.4617015     1.0366086
H           5.5248989     0.4541639     2.0524829
C           3.7588779     0.3042183     0.8391372
C           2.8461459     0.1450495     2.0359890
H           3.4190744     0.1889186     2.9668870
H           2.3134964    -0.8151281     2.0255208
H           2.0835799     0.9328715     2.0829308
C           3.2639226     0.3081714    -0.4816322
C           4.1473061     0.4826838    -1.5521377
H           3.7582107     0.4837731    -2.5661931
C           5.5161388     0.6381939    -1.3364961
H           6.1862234     0.7671909    -2.1819677
C           1.1523776    -1.7899963    -3.7019275
H           1.1285353    -2.6556617    -4.3505240
C           1.6179329    -1.7138267    -2.4129145
H           2.0672004    -2.4397801    -1.7516042
N           1.4232541    -0.4016596    -2.0247531
C           0.8568942     0.2354366    -3.0962664
H           0.5940339     1.2852016    -3.0570071
N           0.6772357    -0.5674181    -4.1228087
25
094_C11H12N2_21-0-12-13 (45,) energy =    -535.8934011
C           1.7737928     0.4006365    -0.8133894
H           1.2164917    -0.0243392     0.0258359
H           1.3945972     1.4196880    -0.9568092
C           6.0236568     0.5844193    -0.0324256
H           7.0908536     0.6388798     0.1650448
C           5.1357768     0.3294715     1.0109092
H           5.5191440     0.1866633     2.0185565
C           3.7524703     0.2487541     0.7970670
C           2.8360973    -0.0211994     1.9725087
H           3.4176403    -0.1529561     2.8896861
H           2.2386254    -0.9309884     1.8321569
H           2.1323359     0.8020538     2.1482070
C           3.2657971     0.4292361    -0.5134665
C           4.1627799     0.6912176    -1.5562989
H           3.7774694     0.8224435    -2.5641828
C           5.5343162     0.7674828    -1.3256069
H           6.2135919     0.9675820    -2.1495897
C           1.1311123    -1.9268418    -3.5095990
H           1.1059018    -2.8641403    -4.0495305
C           1.6333042    -1.6897346    -2.2541793
H           2.1156505    -2.3245045    -1.5258861
N           1.4300975    -0.3427862    -2.0217551
C           0.8205497     0.1526690    -3.1431164
H           0.5403080     1.1957280    -3.2219967
N           0.6244328    -0.7703316    -4.0598374
25
094_C11H12N2_21-0-12-13 (60,) energy =    -535.8930670
C           1.7975044     0.5923892    -0.8963281
H           1.1852200     0.3449142    -0.0252232
H           1.5077728     1.6010804    -1.2112568
C           6.0307947     0.5655347    -0.0224408
H           7.0957076     0.5642412     0.1940162
C           5.1192305     0.2123713     0.9702064
H           5.4826808    -0.0636643     1.9572800
C           3.7371571     0.1998574     0.7307709
C           2.7963461    -0.1882063     1.8531962
H           3.3619128    -0.4892003     2.7399407
H           2.1467172    -1.0286271     1.5796435
H           2.1424488     0.6412005     2.1508284
C           3.2780847     0.5572928    -0.5525367
C           4.2002877     0.9133442    -1.5450257
H           3.8341502     1.1784108    -2.5342893
C           5.5690860     0.9183267    -1.2909479
H           6.2677729     1.1957617    -2.0752597
C           1.0982785    -2.0596776    -3.2636147
H           1.0623656    -3.0572146    -3.6811771
C           1.6337858    -1.6662188    -2.0622483
H           2.1402152    -2.2049737    -1.2754237
N           1.4357542    -0.3003175    -1.9972069
C           0.7940363     0.0499210    -3.1545118
H           0.5101464     1.0750724    -3.3574691
N           0.5749988    -0.9813127    -3.9415954
25
094_C11H12N2_21-0-12-13 (75,) energy =    -535.8928847
C           1.8606097     0.7339322    -1.0161924
H           1.2138073     0.6660369    -0.1362772
H           1.6574485     1.6999314    -1.4895747
C           6.0545673     0.5312955    -0.0021860
H           7.1105495     0.4811891     0.2493507
C           5.1010045     0.0890233     0.9129865
H           5.4231283    -0.3036703     1.8745388
C           3.7291619     0.1366621     0.6268937
C           2.7369209    -0.3470114     1.6645011
H           3.2584771    -0.7982926     2.5136723
H           2.0476948    -1.0998292     1.2641397
H           2.1230086     0.4731720     2.0585602
C           3.3239335     0.6478406    -0.6226810
C           4.2881891     1.0928042    -1.5357243
H           3.9627223     1.4816429    -2.4981376
C           5.6471735     1.0371879    -1.2367449
H           6.3795425     1.3867022    -1.9590250
C           1.0598359    -2.1913458    -3.0055173
H           1.0259023    -3.2297091    -3.3078006
C           1.7044748    -1.6493271    -1.9210368
H           2.3208219    -2.0804336    -1.1469819
N           1.4597513    -0.2907547    -1.9850266
C           0.6813887    -0.0932040    -3.0933986
H           0.3372781     0.8938485    -3.3761777
N           0.4225781    -1.2127176    -3.7347085
25
094_C11H12N2_21-0-12-13 (90,) energy =    -535.8936581
C           3.0343918    -0.1917551    -2.2332884
H           2.8905543     0.7555001    -2.7587304
H           3.5750533    -0.8594259    -2.9154846
C           5.3094717     0.2124831     1.4152475
H           5.8751979     0.3102744     2.3378870
C           4.4969902     1.2614595     0.9835259
H           4.4342595     2.1697727     1.5781453
C           3.7510384     1.1736000    -0.1979524
C           2.8667922     2.3261759    -0.6187364
H           2.8830381     3.1220433     0.1314877
H           1.8246434     2.0116401    -0.7484053
H           3.1932262     2.7675317    -1.5698459
C           3.8461408    -0.0059420    -0.9658970
C           4.6581785    -1.0562239    -0.5223399
H           4.7290720    -1.9604633    -1.1236921
C           5.3906373    -0.9559791     0.6602694
H           6.0191747    -1.7807217     0.9842561
C           0.0060851    -2.0177746    -1.4168458
H          -0.6290876    -2.7833836    -0.9912227
C           1.3656551    -1.8809494    -1.2826198
H           2.1061100    -2.4498654    -0.7421731
N           1.6967887    -0.7477877    -2.0003952
C           0.5253879    -0.2727844    -2.5281176
H           0.5019835     0.6127530    -3.1510095
N          -0.5133589    -1.0088421    -2.1967123
25
094_C11H12N2_21-0-12-13 (105,) energy =    -535.8947000
C           3.1043058    -0.3028468    -2.2435303
H           3.0616749     0.6076565    -2.8500513
H           3.6037675    -1.0693283    -2.8479243
C           5.3764149     0.2394705     1.3884104
H           5.9468116     0.3738596     2.3035652
C           4.4414481     1.2022261     1.0042183
H           4.2922580     2.0817506     1.6261077
C           3.6865950     1.0671121    -0.1662575
C           2.6849141     2.1333424    -0.5458978
H           2.6887479     2.9478160     0.1843374
H           1.6658376     1.7338051    -0.5990297
H           2.9091606     2.5718702    -1.5273717
C           3.8913308    -0.0770132    -0.9679045
C           4.8316588    -1.0363823    -0.5769481
H           4.9864956    -1.9113092    -1.2050080
C           5.5753901    -0.8874468     0.5942355
H           6.3015674    -1.6436101     0.8790694
C          -0.0878375    -1.7862638    -1.3753447
H          -0.7965287    -2.4503293    -0.8984089
C           1.2713866    -1.7300764    -1.1904121
H           1.9480032    -2.2840938    -0.5578296
N           1.7156587    -0.7125330    -2.0132027
C           0.6068822    -0.2215718    -2.6493290
H           0.6756296     0.5872863    -3.3660209
N          -0.4971092    -0.8395142    -2.2881444
25
094_C11H12N2_21-0-12-13 (120,) energy =    -535.8945886
C           3.1616423    -0.4182725    -2.2378815
H           3.2275283     0.4403686    -2.9167915
H           3.6179644    -1.2703184    -2.7552471
C           5.4383591     0.2967824     1.3632695
H           6.0179459     0.4792165     2.2642294
C           4.3914226     1.1554735     1.0246718
H           4.1673384     2.0050648     1.6654915
C           3.6204148     0.9592743    -0.1268094
C           2.5030124     1.9231145    -0.4527028
H           2.5404701     2.7947061     0.2076163
H           1.5180598     1.4561096    -0.3392242
H           2.5643588     2.2878141    -1.4856371
C           3.9199305    -0.1472510    -0.9524991
C           4.9772672    -0.9976893    -0.6106825
H           5.2061736    -1.8420612    -1.2574137
C           5.7374384    -0.7859152     0.5398260
H           6.5525614    -1.4604783     0.7863674
C          -0.1880519    -1.5035046    -1.3842682
H          -0.9759794    -2.0404535    -0.8728594
C           1.1623281    -1.5517386    -1.1400745
H           1.7587958    -2.0927232    -0.4211520
N           1.7342625    -0.6808492    -2.0480219
C           0.7048381    -0.1684146    -2.7899542
H           0.8788186     0.5457316    -3.5850939
N          -0.4672495    -0.6361466    -2.4173499
25
094_C11H12N2_21-0-12-13 (135,) energy =    -535.8932987
C           3.1873912    -0.5695279    -2.1950599
H           3.3611935     0.2038009    -2.9544682
H           3.5862958    -1.5057363    -2.6024356
C           5.5225947     0.3842113     1.3173242
H           6.1246153     0.6268234     2.1888794
C           4.3794639     1.1307804     1.0313749
H           4.1057835     1.9584749     1.6815137
C           3.5740148     0.8591667    -0.0820532
C           2.3763887     1.7412900    -0.3556127
H           2.3848798     2.6106576     0.3088546
H           1.4301042     1.2104789    -0.2040070
H           2.3700121     2.1135060    -1.3869324
C           3.9327441    -0.2242695    -0.9159248
C           5.0941168    -0.9537561    -0.6329743
H           5.3739690    -1.7749176    -1.2896609
C           5.8893715    -0.6619662     0.4745309
H           6.7816949    -1.2485522     0.6744504
C          -0.2826268    -1.2768230    -1.4456953
H          -1.1398274    -1.7112267    -0.9485045
C           1.0462731    -1.4555778    -1.1485566
H           1.5581297    -2.0305413    -0.3914208
N           1.7373173    -0.6841513    -2.0631953
C           0.7940580    -0.0963036    -2.8608431
H           1.0695801     0.5658325    -3.6721009
N          -0.4328418    -0.4252025    -2.5180366
25
094_C11H12N2_21-0-12-13 (150,) energy =    -535.8908619
C           3.1739377    -0.7431904    -2.1100289
H           3.4590534    -0.1157039    -2.9646186
H           3.4883148    -1.7633051    -2.3585747
C           5.6142062     0.5067722     1.2416778
H           6.2484711     0.8175702     2.0674748
C           4.3938049     1.1427434     1.0230597
H           4.0927973     1.9564035     1.6787455
C           3.5389195     0.7859714    -0.0307821
C           2.2698456     1.5881704    -0.2260480
H           2.2517378     2.4346824     0.4671373
H           1.3667889     0.9933437    -0.0535499
H           2.1937256     1.9927983    -1.2412553
C           3.9298146    -0.2846505    -0.8666199
C           5.1727662    -0.8982839    -0.6549887
H           5.4783185    -1.7070115    -1.3162175
C           6.0149906    -0.5174191     0.3869043
H           6.9678213    -1.0196445     0.5292660
C          -0.3817611    -1.0810553    -1.5455525
H          -1.3044080    -1.4277181    -1.0991813
C           0.9041913    -1.4059494    -1.1889701
H           1.3134772    -2.0433703    -0.4191381
N           1.7185189    -0.7027222    -2.0558514
C           0.8840672    -0.0093616    -2.8891768
H           1.2688129     0.6251057    -3.6778023
N          -0.3861624    -0.2075968    -2.6107963
25
094_C11H12N2_21-0-12-13 (165,) energy =    -535.8882654
C           3.1460435    -0.9338789    -1.9943457
H           3.5400510    -0.5236415    -2.9327887
H           3.3471566    -2.0105786    -2.0279746
C           5.7030853     0.6569235     1.1248930
H           6.3714904     1.0435293     1.8894446
C           4.4231811     1.1853812     0.9857555
H           4.1073563     1.9912754     1.6439589
C           3.5161480     0.7301035     0.0132194
C           2.1758700     1.4310495    -0.0770841
H           2.1237213     2.2289790     0.6698675
H           1.3315817     0.7566086     0.0949548
H           2.0180211     1.8906645    -1.0584214
C           3.9286088    -0.3285100    -0.8255419
C           5.2293366    -0.8394711    -0.6900942
H           5.5470408    -1.6438664    -1.3517299
C           6.1162841    -0.3632310     0.2698697
H           7.1131297    -0.7878105     0.3504840
C          -0.4563779    -0.9136351    -1.7077943
H          -1.4415690    -1.1781809    -1.3472265
C           0.7575696    -1.3894767    -1.2767592
H           1.0379532    -2.1013684    -0.5142096
N           1.7049152    -0.7470484    -2.0508284
C           1.0132310     0.0653964    -2.9072649
H           1.5209723     0.6821827    -3.6382215
N          -0.2880634    -0.0044537    -2.7288486
25
094_C11H12N2_21-0-12-13 (180,) energy =    -535.8869096
C           3.1169173    -1.1127408    -1.8624526
H           3.6047921    -0.9753089    -2.8346672
H           3.1702503    -2.1868436    -1.6510193
C           5.7708936     0.7780928     1.0014583
H           6.4641506     1.2299645     1.7056798
C           4.4509986     1.2128796     0.9454759
H           4.1259928     2.0079868     1.6122422
C           3.5069561     0.6686284     0.0555505
C           2.1059477     1.2453881     0.0897826
H           2.0407639     2.0122831     0.8675208
H           1.3439292     0.4901817     0.3033837
H           1.8249272     1.7145080    -0.8585664
C           3.9372669    -0.3646473    -0.8036183
C           5.2738350    -0.7926438    -0.7421781
H           5.5992369    -1.5874941    -1.4120086
C           6.1901311    -0.2386996     0.1444185
H           7.2157657    -0.5967245     0.1645514
C          -0.4786301    -0.7485237    -1.9310575
H          -1.5165028    -0.9285825    -1.6843832
C           0.6331467    -1.3637444    -1.4111786
H           0.7636073    -2.1365249    -0.6676626
N           1.7127011    -0.7888596    -2.0540665
C           1.1943231     0.1275753    -2.9279934
H           1.8306800     0.7202012    -3.5732407
N          -0.1195162     0.1829351    -2.8800211
