25
094_C11H12N2_12-0-21-19 (-165,) energy =    -535.8936840
C           2.6990474    -1.4259074    -0.9337531
H           3.1345495    -2.2891226    -1.4509706
H           2.1520441    -1.8115054    -0.0661835
C           5.9169309     1.1823756     0.2770415
H           6.7278154     1.8373908     0.5841662
C           4.6570536     1.3143983     0.8633010
H           4.4976953     2.0733512     1.6255652
C           3.5872977     0.4904398     0.4957878
C           2.2398153     0.6567998     1.1602489
H           2.2539575     1.4933349     1.8648828
H           1.9527859    -0.2416175     1.7230829
H           1.4456684     0.8449202     0.4292521
C           3.8066105    -0.4916707    -0.4948541
C           5.0727483    -0.6192458    -1.0761961
H           5.2308898    -1.3807418    -1.8366980
C           6.1289218     0.2102433    -0.6982292
H           7.1046420     0.0958697    -1.1618568
C          -0.0591768    -0.4859857    -3.0820149
H          -1.0257323    -0.5539085    -3.5638860
C           0.4669110    -1.3160735    -2.1241404
H           0.0891501    -2.2022484    -1.6349739
N           1.7110954    -0.7953077    -1.8199325
C           1.8733029     0.3034912    -2.6218004
H           2.7720560     0.9027499    -2.5934213
N           0.8234019     0.5253507    -3.3861339
25
094_C11H12N2_12-0-21-19 (-150,) energy =    -535.8940945
C           2.8021249    -1.4428550    -1.0091913
H           3.2775650    -2.2562988    -1.5704153
H           2.2723603    -1.9005103    -0.1667347
C           5.8944788     1.2442515     0.3513084
H           6.6736931     1.9187622     0.6958900
C           4.6057368     1.3442872     0.8784846
H           4.3927444     2.0976344     1.6332112
C           3.5743611     0.4952712     0.4622231
C           2.1932939     0.6339025     1.0597254
H           2.1802464     1.4067203     1.8338109
H           1.8547921    -0.3021707     1.5232463
H           1.4480409     0.9016431     0.3021959
C           3.8633612    -0.4804059    -0.5172774
C           5.1582382    -0.5767213    -1.0380057
H           5.3710835    -1.3344826    -1.7889622
C           6.1754638     0.2781667    -0.6120343
H           7.1742258     0.1874841    -1.0296173
C          -0.0846392    -0.4117464    -2.9401119
H          -1.1025861    -0.4114218    -3.3070766
C           0.4614650    -1.2074443    -1.9642777
H           0.0535609    -1.9955406    -1.3481227
N           1.7810271    -0.8101518    -1.8524707
C           1.9599594     0.1890017    -2.7714660
H           2.9123887     0.6850815    -2.8960995
N           0.8567573     0.4602146    -3.4384677
25
094_C11H12N2_12-0-21-19 (-135,) energy =    -535.8940143
C           2.8397713    -1.4608043    -1.0675486
H           3.3420759    -2.2454498    -1.6452192
H           2.3133021    -1.9566123    -0.2453985
C           5.8489411     1.2723947     0.3898161
H           6.6071413     1.9588023     0.7570400
C           4.5490173     1.3377087     0.8946178
H           4.3065725     2.0759736     1.6553815
C           3.5432243     0.4731177     0.4489701
C           2.1505359     0.5750180     1.0264866
H           2.1115442     1.3331033     1.8142220
H           1.8230125    -0.3754943     1.4683199
H           1.4112199     0.8424403     0.2632245
C           3.8699477    -0.4829840    -0.5378400
C           5.1761499    -0.5454053    -1.0350128
H           5.4196051    -1.2898402    -1.7901645
C           6.1674812     0.3247998    -0.5798732
H           7.1753637     0.2599526    -0.9800415
C          -0.1072372    -0.3117638    -2.8411443
H          -1.1520022    -0.2195145    -3.1069968
C           0.4454185    -1.0668579    -1.8370498
H           0.0195304    -1.7346668    -1.1024517
N           1.8073420    -0.8370588    -1.9030160
C           1.9992797     0.0366316    -2.9389252
H           2.9833715     0.3973782    -3.2056836
N           0.8697305     0.3761697    -3.5251537
25
094_C11H12N2_12-0-21-19 (-120,) energy =    -535.8935053
C           2.8709546    -1.4736515    -1.0844650
H           3.3982915    -2.2446523    -1.6567323
H           2.3399458    -1.9856197    -0.2758096
C           5.8144388     1.3131445     0.4127899
H           6.5562454     2.0131176     0.7877826
C           4.5190920     1.3289671     0.9323969
H           4.2641299     2.0422789     1.7126383
C           3.5329140     0.4459372     0.4782787
C           2.1463238     0.4981730     1.0772080
H           2.1042369     1.2251412     1.8936340
H           1.8427087    -0.4741253     1.4876369
H           1.3916228     0.7811997     0.3349089
C           3.8748340    -0.4779788    -0.5334495
C           5.1779900    -0.4920733    -1.0431143
H           5.4354025    -1.2145669    -1.8149180
C           6.1493757     0.3959331    -0.5802277
H           7.1545372     0.3675777    -0.9913864
C          -0.0697625    -0.2159107    -2.8007072
H          -1.1145750    -0.0189776    -3.0012053
C           0.4732065    -0.8979254    -1.7405447
H           0.0352208    -1.4004570    -0.8906310
N           1.8411552    -0.8771231    -1.9432548
C           2.0450316    -0.1821618    -3.1042104
H           3.0382066    -0.0006475    -3.4931402
N           0.9191457     0.2294494    -3.6489601
25
094_C11H12N2_12-0-21-19 (-105,) energy =    -535.8937808
C           1.9844753    -0.5591093    -0.6826677
H           1.9314327    -1.5566602    -0.2300497
H           1.1568823     0.0125872    -0.2462231
C           5.7560200     1.3182413     0.3042637
H           6.7006158     1.7874353     0.5657529
C           4.9834658     0.7092818     1.2938720
H           5.3313245     0.7086721     2.3244273
C           3.7637749     0.0938170     0.9924764
C           2.9504212    -0.5501862     2.0925425
H           3.4461330    -0.4365379     3.0610034
H           2.8047713    -1.6254417     1.9223786
H           1.9502356    -0.1054789     2.1802843
C           3.3188960     0.0944515    -0.3470400
C           4.0930954     0.7104654    -1.3338178
H           3.7440738     0.7124396    -2.3615620
C           5.3075790     1.3200381    -1.0143773
H           5.8964497     1.7920883    -1.7959813
C           0.9013076    -0.4500898    -4.1322230
H           0.3588998    -0.1258776    -5.0103142
C           0.8293250     0.0573437    -2.8591637
H           0.2589808     0.8636916    -2.4217229
N           1.7073863    -0.6989735    -2.1051592
C           2.2514732    -1.6201981    -2.9599451
H           2.9787895    -2.3481854    -2.6240888
N           1.7912549    -1.5000719    -4.1869643
25
094_C11H12N2_12-0-21-19 (-90,) energy =    -535.8943602
C           2.0504713    -0.7079519    -0.6904403
H           2.1050793    -1.7382390    -0.3177371
H           1.2006631    -0.2471747    -0.1725822
C           5.7071983     1.3943411     0.2741488
H           6.6238975     1.9186075     0.5302811
C           4.9396207     0.8018243     1.2777639
H           5.2640655     0.8683638     2.3138090
C           3.7548013     0.1191707     0.9831171
C           2.9478344    -0.5122971     2.0948076
H           3.4139021    -0.3300400     3.0674973
H           2.8582552    -1.6000945     1.9716551
H           1.9252946    -0.1143298     2.1398508
C           3.3394161     0.0353288    -0.3632224
C           4.1100278     0.6307346    -1.3648803
H           3.7849144     0.5659395    -2.3983700
C           5.2898519     1.3084499    -1.0517911
H           5.8762438     1.7649211    -1.8444475
C           0.9626734    -0.3272162    -4.1167840
H           0.4711964     0.1055133    -4.9779765
C           0.9612256     0.1323179    -2.8234222
H           0.5094671     0.9919995    -2.3505544
N           1.7182093    -0.7743963    -2.1048573
C           2.1328627    -1.7230536    -3.0007811
H           2.7497679    -2.5594449    -2.6974102
N           1.6965559    -1.4884887    -4.2197356
25
094_C11H12N2_12-0-21-19 (-75,) energy =    -535.8944372
C           2.1267232    -0.8646309    -0.6817905
H           2.2987801    -1.9165819    -0.4213366
H           1.2714634    -0.5412764    -0.0762659
C           5.6347459     1.4673077     0.3071895
H           6.5154857     2.0474674     0.5689344
C           4.8585577     0.8873920     1.3113246
H           5.1409112     1.0186946     2.3534811
C           3.7179823     0.1354192     1.0099340
C           2.9037736    -0.4826512     2.1241769
H           3.3510670    -0.2676025     3.0990029
H           2.8339132    -1.5742370     2.0276868
H           1.8743704    -0.1001143     2.1433554
C           3.3556270    -0.0302052    -0.3440732
C           4.1383620     0.5480638    -1.3467863
H           3.8560428     0.4180978    -2.3866634
C           5.2731153     1.2955654    -1.0268326
H           5.8682237     1.7390415    -1.8203666
C           0.9810044    -0.1996485    -4.0444014
H           0.5301489     0.3337400    -4.8707246
C           1.0854646     0.2021891    -2.7360986
H           0.7793058     1.0988323    -2.2176934
N           1.7239978    -0.8333640    -2.0787239
C           1.9758476    -1.7904166    -3.0250273
H           2.4761813    -2.7174130    -2.7744959
N           1.5394794    -1.4471274    -4.2175000
25
094_C11H12N2_12-0-21-19 (-60,) energy =    -535.8938175
C           2.2720280    -1.0317195    -0.7275895
H           2.5810728    -2.0790721    -0.6184485
H           1.4350614    -0.8871417    -0.0348558
C           5.5780789     1.5566772     0.3176502
H           6.4098648     2.2004873     0.5905344
C           4.7725672     1.0003644     1.3111085
H           4.9841151     1.2133930     2.3564607
C           3.6906391     0.1692859     0.9970431
C           2.8520889    -0.4220125     2.1090289
H           3.2424127    -0.1261953     3.0871886
H           2.8388262    -1.5191094     2.0786985
H           1.8066199    -0.0893988     2.0596384
C           3.4187726    -0.0995173    -0.3613564
C           4.2352090     0.4533259    -1.3532718
H           4.0233349     0.2411375    -2.3965838
C           5.3091002     1.2794846    -1.0209833
H           5.9293266     1.7017276    -1.8068035
C           0.9334245    -0.0895843    -3.9535401
H           0.4884054     0.5305585    -4.7203874
C           1.2277226     0.2532196    -2.6574035
H           1.1119070     1.1688935    -2.0971741
N           1.7719608    -0.8832998    -2.0874496
C           1.7836463    -1.8366190    -3.0703709
H           2.1666856    -2.8330031    -2.8885255
N           1.2841468    -1.3978331    -4.2051570
25
094_C11H12N2_12-0-21-19 (-45,) energy =    -535.8928673
C           2.8117817    -1.4305610    -0.9925844
H           3.3866316    -2.2638237    -1.4098445
H           2.2098234    -1.8354868    -0.1735107
C           5.5525174     1.6320687     0.3363388
H           6.2445440     2.4017074     0.6674927
C           4.4922940     1.2511604     1.1568210
H           4.3654580     1.7301192     2.1248283
C           3.5777940     0.2626206     0.7660001
C           2.4471728    -0.1142169     1.7011984
H           2.4301036     0.5501276     2.5701869
H           2.5501240    -1.1399477     2.0780449
H           1.4661707    -0.0465662     1.2161836
C           3.7533792    -0.3515280    -0.4904433
C           4.8210675     0.0371004    -1.3095232
H           4.9413005    -0.4395886    -2.2798952
C           5.7191200     1.0224476    -0.9073732
H           6.5408387     1.3097519    -1.5573242
C           0.4635586     0.1493512    -3.2614099
H          -0.2169296     0.8924552    -3.6556739
C           1.2043255     0.2123181    -2.1069829
H           1.3091687     0.9704427    -1.3459821
N           1.9199264    -0.9690216    -2.0608122
C           1.5692670    -1.6740552    -3.1802974
H           1.9875214    -2.6505763    -3.3903134
N           0.6972466    -1.0323578    -3.9282927
25
094_C11H12N2_12-0-21-19 (-30,) energy =    -535.8925871
C           2.9364156    -1.4656625    -1.0730277
H           3.5453151    -2.2141910    -1.5901773
H           2.4175855    -1.9797143    -0.2571656
C           5.5270042     1.6641487     0.3863913
H           6.1801412     2.4519326     0.7520390
C           4.4222194     1.2716890     1.1411699
H           4.2224963     1.7595381     2.0922669
C           3.5566759     0.2594220     0.7049506
C           2.3722525    -0.1331477     1.5626619
H           2.2795527     0.5371764     2.4222060
H           2.4715302    -1.1536904     1.9546626
H           1.4284077    -0.0919384     1.0065838
C           3.8267623    -0.3666294    -0.5297167
C           4.9382344     0.0332996    -1.2816350
H           5.1342076    -0.4550254    -2.2336588
C           5.7883049     1.0424956    -0.8343287
H           6.6458642     1.3381026    -1.4321159
C           0.4289445     0.1757906    -3.1277340
H          -0.2316461     0.9516176    -3.4915830
C           1.3384133     0.2563436    -2.1018624
H           1.6298553     1.0612604    -1.4454881
N           1.9415845    -0.9861619    -2.0429156
C           1.3615259    -1.7407401    -3.0263041
H           1.6514061    -2.7697350    -3.1988519
N           0.4489749    -1.0748056    -3.7021023
25
094_C11H12N2_12-0-21-19 (-15,) energy =    -535.8923584
C           3.0243936    -1.4644392    -1.1488356
H           3.6536347    -2.1358129    -1.7423762
H           2.5801038    -2.0629673    -0.3461535
C           5.5094289     1.6917835     0.4282898
H           6.1367240     2.4850923     0.8258600
C           4.3756809     1.2842846     1.1315306
H           4.1280404     1.7659894     2.0744519
C           3.5428218     0.2646598     0.6533784
C           2.3250122    -0.1483274     1.4509314
H           2.1842408     0.5113264     2.3121651
H           2.4185744    -1.1722851     1.8359388
H           1.4094857    -0.1118734     0.8494332
C           3.8751191    -0.3537651    -0.5708298
C           5.0145358     0.0609851    -1.2702756
H           5.2602085    -0.4225059    -2.2131334
C           5.8326511     1.0780379    -0.7810150
H           6.7131778     1.3851008    -1.3382234
C           0.4086949     0.1957245    -3.0575347
H          -0.2266155     0.9893484    -3.4278788
C           1.4428819     0.2947933    -2.1593203
H           1.8739495     1.1304242    -1.6312364
N           1.9433774    -0.9873825    -2.0271858
C           1.1842367    -1.7806707    -2.8441378
H           1.3633819    -2.8451203    -2.9309690
N           0.2523986    -1.1039344    -3.4822501
25
094_C11H12N2_12-0-21-19 (0,) energy =    -535.8925211
C           3.1325465    -1.4647656    -1.2018394
H           3.7667507    -2.0637295    -1.8646478
H           2.7580915    -2.1342693    -0.4198111
C           5.5501242     1.6987943     0.4616091
H           6.1607990     2.4934428     0.8817602
C           4.3973172     1.2818686     1.1283862
H           4.1192199     1.7575519     2.0658390
C           3.5851518     0.2605751     0.6209398
C           2.3454038    -0.1650987     1.3751191
H           2.1956388     0.4596023     2.2604845
H           2.4151387    -1.2061999     1.7169877
H           1.4451520    -0.0892436     0.7546028
C           3.9574777    -0.3501410    -0.5963271
C           5.1157747     0.0728840    -1.2580180
H           5.3931282    -0.4057708    -2.1945170
C           5.9138195     1.0920758    -0.7391783
H           6.8095653     1.4057109    -1.2677071
C           0.4294667     0.1992910    -2.9838271
H          -0.1834407     0.9998654    -3.3763102
C           1.5684265     0.3056718    -2.2237982
H           2.1215407     1.1529836    -1.8511032
N           1.9768871    -0.9935688    -1.9840985
C           1.0639095    -1.8025002    -2.6046213
H           1.1444926    -2.8819311    -2.5721714
N           0.1194529    -1.1208246    -3.2185456
25
094_C11H12N2_12-0-21-19 (15,) energy =    -535.8932317
C           3.1773248    -1.4612957    -1.2797329
H           3.8168942    -1.9810634    -2.0027139
H           2.8639229    -2.2010671    -0.5350877
C           5.5073581     1.6980060     0.5121479
H           6.0960661     2.4911939     0.9651575
C           4.3381580     1.2581416     1.1348905
H           4.0260991     1.7139293     2.0715412
C           3.5529690     0.2384116     0.5848524
C           2.2924177    -0.2100789     1.2882290
H           2.1449106     0.3494777     2.2164821
H           2.3287756    -1.2758835     1.5491375
H           1.4051435    -0.0631631     0.6616309
C           3.9699473    -0.3475768    -0.6306345
C           5.1443146     0.0975216    -1.2474936
H           5.4573333    -0.3628036    -2.1819869
C           5.9152825     1.1155948    -0.6860161
H           6.8241402     1.4468118    -1.1803407
C           0.3993211     0.1829534    -2.9546498
H          -0.1989867     0.9776188    -3.3802752
C           1.6239690     0.2873437    -2.3419825
H           2.2737784     1.1248061    -2.1432457
N           1.9644890    -1.0012873    -1.9739267
C           0.9292415    -1.8013203    -2.3758647
H           0.9349248    -2.8702569    -2.2025340
N          -0.0297510    -1.1248629    -2.9723087
25
094_C11H12N2_12-0-21-19 (30,) energy =    -535.8941749
C           3.2530960    -1.4434775    -1.3375340
H           3.8853847    -1.8852734    -2.1173832
H           3.0048362    -2.2443667    -0.6324538
C           5.5159727     1.7060856     0.5584224
H           6.0885850     2.4961912     1.0367389
C           4.3362935     1.2473753     1.1472212
H           4.0005062     1.6858224     2.0839724
C           3.5710664     0.2312823     0.5639357
C           2.2978336    -0.2345186     1.2314837
H           2.1599346     0.2629630     2.1959377
H           2.3061215    -1.3164028     1.4168852
H           1.4173122    -0.0232522     0.6138208
C           4.0193532    -0.3322321    -0.6512522
C           5.2041737     0.1310300    -1.2334468
H           5.5421140    -0.3126647    -2.1673986
C           5.9551614     1.1455967    -0.6388407
H           6.8725464     1.4906550    -1.1073592
C           0.3953902     0.1387435    -2.9237620
H          -0.2026272     0.9074394    -3.3951120
C           1.6834286     0.2399260    -2.4582631
H           2.3952931     1.0504068    -2.4432982
N           1.9884327    -1.0049738    -1.9403471
C           0.8737316    -1.7788580    -2.1186895
H           0.8400411    -2.8109833    -1.7927450
N          -0.1052980    -1.1256074    -2.7078839
25
094_C11H12N2_12-0-21-19 (45,) energy =    -535.8947638
C           3.2847906    -1.4110639    -1.3810441
H           3.9035225    -1.8033757    -2.1970628
H           3.0724397    -2.2488677    -0.7077163
C           5.5268050     1.7040980     0.5980589
H           6.0938262     2.4855944     1.0967369
C           4.3536951     1.2180567     1.1779833
H           4.0174826     1.6262960     2.1281804
C           3.5949180     0.2119666     0.5695564
C           2.3312974    -0.2851379     1.2326276
H           2.1987358     0.1803965     2.2136824
H           2.3501745    -1.3723041     1.3838778
H           1.4428127    -0.0627103     0.6308686
C           4.0429108    -0.3126704    -0.6628920
C           5.2215103     0.1772835    -1.2358398
H           5.5612852    -0.2373785    -2.1825567
C           5.9662747     1.1812122    -0.6158008
H           6.8789222     1.5470772    -1.0777888
C           0.4030705     0.0985729    -2.9811514
H          -0.1820674     0.8216507    -3.5338405
C           1.7271643     0.1793831    -2.6268635
H           2.4848155     0.9308976    -2.7881741
N           1.9937023    -0.9806562    -1.9245205
C           0.8248090    -1.6926515    -1.9003754
H           0.7563271    -2.6550293    -1.4087192
N          -0.1554414    -1.0743322    -2.5233917
25
094_C11H12N2_12-0-21-19 (60,) energy =    -535.8945634
C           3.2623899    -1.3740381    -1.4092776
H           3.8772984    -1.7477338    -2.2356067
H           3.0458824    -2.2286404    -0.7590274
C           5.5064305     1.6939545     0.6445808
H           6.0724677     2.4651962     1.1600282
C           4.3576089     1.1641363     1.2342596
H           4.0397432     1.5276020     2.2086762
C           3.5995690     0.1694682     0.6060511
C           2.3661689    -0.3764213     1.2876937
H           2.2564272     0.0498292     2.2892065
H           2.4100879    -1.4678718     1.3984639
H           1.4544240    -0.1492381     0.7238713
C           4.0224532    -0.2975768    -0.6578268
C           5.1786344     0.2348219    -1.2389406
H           5.5019391    -0.1383590    -2.2085736
C           5.9231387     1.2264433    -0.5994121
H           6.8179073     1.6251640    -1.0691874
C           0.4186315     0.0644404    -3.1328452
H          -0.1363256     0.7161626    -3.7946319
C           1.7625532     0.0899382    -2.8545314
H           2.5667917     0.7299716    -3.1849751
N           1.9736485    -0.9301379    -1.9463505
C           0.7548497    -1.5203251    -1.7433387
H           0.6386032    -2.3679127    -1.0796325
N          -0.2057952    -0.9451786    -2.4339431
25
094_C11H12N2_12-0-21-19 (75,) energy =    -535.8944371
C           1.7453709    -0.0914157    -0.7045172
H           1.3609196    -0.8310549     0.0080992
H           1.1898578     0.8338957    -0.5064411
C           5.9679038     0.5810368    -0.0414445
H           7.0253661     0.7552987     0.1380510
C           5.0667846     0.6067433     1.0236671
H           5.4288011     0.8027706     2.0304209
C           3.6992538     0.3853366     0.8286129
C           2.7508905     0.4262869     2.0056987
H           3.2861248     0.6660354     2.9290686
H           2.2439010    -0.5357758     2.1601907
H           1.9640930     1.1810955     1.8757067
C           3.2356381     0.1299833    -0.4798473
C           4.1406338     0.1100716    -1.5442776
H           3.7795332    -0.0866094    -2.5487149
C           5.5020309     0.3327775    -1.3302844
H           6.1906844     0.3115373    -2.1704164
C           1.1297851    -1.6963948    -3.8833738
H           1.0990594    -2.4783477    -4.6304821
C           1.5542190    -1.7891067    -2.5813303
H           1.9503780    -2.6051213    -1.9951137
N           1.3809401    -0.5271799    -2.0431101
C           0.8752830     0.2523279    -3.0488639
H           0.6477055     1.2995559    -2.8941363
N           0.7061750    -0.4168235    -4.1686182
25
094_C11H12N2_12-0-21-19 (90,) energy =    -535.8943601
C           1.7720176    -0.2606667    -0.6541418
H           1.4757908    -1.1098202    -0.0266986
H           1.1481480     0.5820142    -0.3312789
C           5.9467548     0.6845127    -0.0222990
H           6.9922781     0.9251873     0.1501989
C           5.0387381     0.7245636     1.0366555
H           5.3834966     0.9971224     2.0316074
C           3.6860787     0.4211020     0.8498204
C           2.7287629     0.4755120     2.0187594
H           3.2522947     0.7485999     2.9395672
H           2.2361050    -0.4901737     2.1940433
H           1.9304171     1.2136804     1.8630021
C           3.2443322     0.0691428    -0.4437209
C           4.1567374     0.0289212    -1.5008616
H           3.8126436    -0.2451216    -2.4930974
C           5.5033985     0.3347473    -1.2953845
H           6.1981583     0.2985316    -2.1299606
C           1.0209543    -1.6169959    -3.9196646
H           0.8937994    -2.3528205    -4.7025086
C           1.4001136    -1.8259290    -2.6171487
H           1.6630768    -2.7149367    -2.0628351
N           1.4000919    -0.5769776    -2.0241768
C           1.0261814     0.3099953    -2.9978613
H           0.9452986     1.3711006    -2.7987006
N           0.7886226    -0.2788575    -4.1502542
25
094_C11H12N2_12-0-21-19 (105,) energy =    -535.8937820
C           1.8245326    -0.4196869    -0.6324779
H           1.6175181    -1.3480424    -0.0869080
H           1.1454042     0.3325561    -0.2135827
C           5.9342637     0.7771130    -0.0012116
H           6.9639673     1.0787041     0.1707230
C           5.0098486     0.8272364     1.0428190
H           5.3263404     1.1677902     2.0261153
C           3.6759921     0.4486727     0.8560925
C           2.7030088     0.5109149     2.0120016
H           3.2049055     0.8407559     2.9262551
H           2.2467496    -0.4657355     2.2207641
H           1.8785519     1.2107176     1.8193486
C           3.2705421     0.0107222    -0.4229331
C           4.2007886    -0.0433991    -1.4642029
H           3.8850174    -0.3851531    -2.4448658
C           5.5277017     0.3382241    -1.2589760
H           6.2359418     0.2913047    -2.0815723
C           0.8919758    -1.5639010    -3.9350151
H           0.6551276    -2.2517988    -4.7356760
C           1.2540494    -1.8607662    -2.6450059
H           1.3944830    -2.7934281    -2.1184429
N           1.4437753    -0.6421304    -2.0200778
C           1.1798160     0.3164767    -2.9617393
H           1.2528293     1.3723074    -2.7344779
N           0.8472241    -0.2003513    -4.1253561
25
094_C11H12N2_12-0-21-19 (120,) energy =    -535.8930319
C           1.8894074    -0.5798983    -0.6290567
H           1.7823221    -1.5718242    -0.1738904
H           1.1632396     0.0660683    -0.1223465
C           5.9166613     0.8668286     0.0131682
H           6.9265803     1.2282705     0.1869681
C           4.9695983     0.9265440     1.0356242
H           5.2495901     1.3342349     2.0042899
C           3.6587743     0.4737872     0.8468035
C           2.6672080     0.5468216     1.9868980
H           3.1390339     0.9547910     2.8855491
H           2.2628734    -0.4401028     2.2469643
H           1.8090675     1.1889082     1.7472547
C           3.3004267    -0.0490897    -0.4141376
C           4.2558750    -0.1150928    -1.4328440
H           3.9758909    -0.5230236    -2.3990357
C           5.5582606     0.3409847    -1.2260460
H           6.2847711     0.2842727    -2.0319279
C           0.7410049    -1.4882244    -3.9377986
H           0.3868309    -2.1133382    -4.7465841
C           1.1092737    -1.8709629    -2.6727872
H           1.1446231    -2.8306833    -2.1782190
N           1.4912421    -0.7100521    -2.0257466
C           1.3168972     0.3055859    -2.9284648
H           1.5406182     1.3344472    -2.6784753
N           0.8729107    -0.1256079    -4.0899570
25
094_C11H12N2_12-0-21-19 (135,) energy =    -535.8923570
C           2.0019851    -0.8139574    -0.6322401
H           2.0400000    -1.8717954    -0.3447295
H           1.2390873    -0.3487396     0.0000752
C           5.8970494     0.9519447     0.0185318
H           6.8765830     1.3903016     0.1893478
C           4.9105535     1.0477399     0.9987258
H           5.1298743     1.5614233     1.9318484
C           3.6344109     0.4994754     0.8137801
C           2.6050456     0.6237623     1.9169733
H           3.0251320     1.1533722     2.7770648
H           2.2577436    -0.3543350     2.2728594
H           1.7167208     1.1812775     1.5924370
C           3.3561371    -0.1598142    -0.4016367
C           4.3536299    -0.2599863    -1.3789601
H           4.1314576    -0.7696018    -2.3120804
C           5.6175302     0.2918453    -1.1770773
H           6.3758203     0.2062625    -1.9504072
C           0.5872753    -1.2900969    -3.9278866
H           0.1174003    -1.7988012    -4.7591079
C           0.9916067    -1.8234258    -2.7301942
H           0.9435887    -2.8210010    -2.3184520
N           1.5483777    -0.7746810    -2.0211850
C           1.4314322     0.3317932    -2.8205782
H           1.7911377     1.3023658    -2.5064977
N           0.8669401     0.0574887    -3.9777429
25
094_C11H12N2_12-0-21-19 (150,) energy =    -535.8924194
C           2.4300760    -1.2805673    -0.6801142
H           2.7388511    -2.3056604    -0.9081709
H           1.7623410    -1.3317500     0.1858842
C           5.9651131     1.0696346     0.1092889
H           6.8561158     1.6597948     0.3059537
C           4.8136381     1.2770886     0.8671728
H           4.8163154     2.0311169     1.6506614
C           3.6443438     0.5367211     0.6444990
C           2.4209785     0.7978761     1.4981041
H           2.5804668     1.6658406     2.1445169
H           2.1866109    -0.0543378     2.1491658
H           1.5287641     0.9965576     0.8929052
C           3.6531282    -0.4381074    -0.3741381
C           4.8137017    -0.6401852    -1.1312916
H           4.8063759    -1.3920162    -1.9173986
C           5.9670652     0.1053067    -0.8984675
H           6.8574946    -0.0662731    -1.4966510
C           0.3262748    -0.7278626    -3.5779610
H          -0.3293308    -0.9664849    -4.4050957
C           0.9275264    -1.5942455    -2.6993241
H           0.9023057    -2.6694812    -2.5975201
N           1.6717480    -0.8034970    -1.8442700
C           1.4756624     0.4893926    -2.2494545
H           1.9627521     1.3215301    -1.7607137
N           0.6748135     0.5723298    -3.2923358
25
094_C11H12N2_12-0-21-19 (165,) energy =    -535.8926937
C           2.5377111    -1.3436594    -0.7568183
H           2.8985196    -2.3245444    -1.0839322
H           1.9048578    -1.5095087     0.1218038
C           5.9581822     1.1188833     0.1729895
H           6.8202674     1.7376798     0.4069728
C           4.7623915     1.3029146     0.8669067
H           4.7023710     2.0672431     1.6380067
C           3.6292659     0.5253950     0.5949018
C           2.3531449     0.7582024     1.3744481
H           2.4509689     1.6321801     2.0249699
H           2.1042356    -0.0986675     2.0141521
H           1.4947196     0.9292263     0.7146876
C           3.7195406    -0.4630322    -0.4076382
C           4.9233471    -0.6413727    -1.0996100
H           4.9800765    -1.4053874    -1.8717661
C           6.0415161     0.1413555    -0.8177736
H           6.9669208    -0.0123202    -1.3655822
C           0.1858945    -0.6381950    -3.4201505
H          -0.5929465    -0.8265311    -4.1475007
C           0.7564907    -1.5280971    -2.5445254
H           0.5899372    -2.5787050    -2.3553764
N           1.7021972    -0.8064049    -1.8411137
C           1.6486668     0.4727493    -2.3271962
H           2.3011697     1.2515765    -1.9596720
N           0.7478835     0.6096303    -3.2792393
25
094_C11H12N2_12-0-21-19 (180,) energy =    -535.8930734
C           2.6289532    -1.3925430    -0.8514213
H           3.0365021    -2.3099587    -1.2910112
H           2.0503544    -1.6866353     0.0314981
C           5.9372248     1.1657448     0.2133255
H           6.7714271     1.8078670     0.4829144
C           4.7039864     1.3259600     0.8463262
H           4.5879728     2.0946920     1.6065718
C           3.6057859     0.5182091     0.5276815
C           2.2871847     0.7191569     1.2402498
H           2.3389289     1.5748593     1.9196253
H           2.0119442    -0.1588387     1.8395913
H           1.4665487     0.8989001     0.5365294
C           3.7689298    -0.4762863    -0.4608950
C           5.0092035    -0.6313989    -1.0900851
H           5.1234964    -1.4013679    -1.8498298
C           6.0934005     0.1815779    -0.7609865
H           7.0482272     0.0454793    -1.2607864
C           0.0367881    -0.5619402    -3.2408319
H          -0.8504254    -0.6961844    -3.8457783
C           0.5792034    -1.4360492    -2.3323198
H           0.2875839    -2.4221021    -2.0005804
N           1.6959796    -0.8008449    -1.8223478
C           1.7717930     0.4103655    -2.4577459
H           2.5672102     1.1128421    -2.2554026
N           0.7857119     0.5899583    -3.3131253
