21
308_C9H12_0-4-16-17 (-165,) energy =    -350.1868124
C           1.0254893    -0.6679424    -0.1722275
H           0.5563709    -0.0682739     0.6107099
H           0.3669440    -1.5226815    -0.3655927
H           1.0584717    -0.0686717    -1.0885812
C           2.4113638    -1.1913257     0.2250120
H           2.7212759    -1.9221868    -0.5331474
H           2.2928171    -1.7788128     1.1485653
C           6.0035124     1.1763165     0.8931281
H           6.9177593     1.7389442     1.0624755
C           4.7731968     1.8258605     0.8834450
H           4.7397101     2.8996719     1.0539731
C           3.5599547     1.1482087     0.6708895
C           2.2912130     1.9769892     0.7387671
H           2.5396163     3.0230726     0.9433395
H           1.6222668     1.6419212     1.5395649
H           1.7183472     1.9544109    -0.1931434
C           3.5980447    -0.2453048     0.4363391
C           4.8499759    -0.8854717     0.4671406
H           4.8836356    -1.9608090     0.3007941
C           6.0407641    -0.2015932     0.6888980
H           6.9849760    -0.7398283     0.6981226
21
308_C9H12_0-4-16-17 (-150,) energy =    -350.1887943
C           1.0785460    -0.6573826    -0.3186904
H           0.5346783     0.0561294     0.3025638
H           0.4082063    -1.5051486    -0.5016880
H           1.2792122    -0.1827085    -1.2863124
C           2.3690066    -1.1676030     0.3415714
H           2.6994602    -2.0588927    -0.2049918
H           2.1103295    -1.5308100     1.3490704
C           5.9974275     1.1864979     0.8149698
H           6.9162042     1.7532356     0.9406419
C           4.7645455     1.8316217     0.8689445
H           4.7337934     2.9041289     1.0485047
C           3.5491205     1.1460265     0.7153794
C           2.2723144     1.9486033     0.8655164
H           2.5057617     2.9728828     1.1726817
H           1.6085034     1.5235362     1.6274618
H           1.6997860     2.0096151    -0.0660122
C           3.5820045    -0.2461804     0.4675185
C           4.8343329    -0.8829161     0.4465312
H           4.8661370    -1.9579837     0.2802582
C           6.0313761    -0.1909255     0.6117271
H           6.9777332    -0.7244004     0.5787377
21
308_C9H12_0-4-16-17 (-135,) energy =    -350.1914256
C           1.1601947    -0.7001851    -0.4527303
H           0.6286133     0.1690123    -0.0620855
H           0.4327716    -1.5156122    -0.5395126
H           1.5076110    -0.4568885    -1.4638077
C           2.3279969    -1.1420537     0.4467433
H           2.6489498    -2.1412990     0.1310409
H           1.9399224    -1.2697779     1.4699649
C           5.9858328     1.1878268     0.7280596
H           6.9081514     1.7571960     0.8078743
C           4.7550388     1.8289568     0.8556602
H           4.7294157     2.8993625     1.0489124
C           3.5397140     1.1359310     0.7630581
C           2.2597526     1.9128412     0.9897111
H           2.4801854     2.8836987     1.4449125
H           1.5722251     1.3834571     1.6594917
H           1.7182056     2.1074150     0.0563618
C           3.5654216    -0.2542850     0.5032486
C           4.8144939    -0.8887309     0.4188345
H           4.8409136    -1.9637432     0.2529262
C           6.0155440    -0.1886424     0.5189915
H           6.9619521    -0.7166481     0.4365537
21
308_C9H12_0-4-16-17 (-120,) energy =    -350.1940532
C           1.2713059    -0.7216272    -0.5702768
H           0.8560808     0.2814923    -0.4470892
H           0.4353955    -1.4305819    -0.5514472
H           1.7323140    -0.7722946    -1.5634152
C           2.2912526    -1.0721048     0.5278695
H           2.5845421    -2.1220757     0.4142441
H           1.7860172    -1.0070698     1.5034573
C           5.9773980     1.2121087     0.6835857
H           6.9044394     1.7775209     0.7304294
C           4.7567009     1.8540095     0.8877128
H           4.7435280     2.9201957     1.1046985
C           3.5385974     1.1630625     0.8385445
C           2.2616384     1.9271345     1.1165748
H           2.4773087     2.8455381     1.6721858
H           1.5501271     1.3404118     1.7083077
H           1.7471796     2.2224000     0.1933095
C           3.5512987    -0.2226216     0.5578828
C           4.7894564    -0.8591410     0.3904525
H           4.8037143    -1.9311314     0.2049341
C           5.9944468    -0.1594078     0.4404285
H           6.9353754    -0.6844013     0.2978626
21
308_C9H12_0-4-16-17 (-105,) energy =    -350.1955513
C           1.3762756    -0.8104251    -0.6895422
H           1.0481262     0.2294990    -0.7809638
H           0.4809439    -1.4423916    -0.6625131
H           1.9402860    -1.0603646    -1.5952023
C           2.2362684    -1.0328109     0.5686512
H           2.4995931    -2.0952693     0.6328244
H           1.6258187    -0.8173400     1.4561515
C           5.9402923     1.2167801     0.6508455
H           6.8705139     1.7785214     0.6714272
C           4.7321279     1.8570647     0.9263312
H           4.7323332     2.9181551     1.1668512
C           3.5119949     1.1692537     0.9118213
C           2.2405952     1.9199727     1.2432868
H           2.4706359     2.9069822     1.6565796
H           1.6287459     1.3863505     1.9805404
H           1.6089161     2.0762910     0.3600492
C           3.5111226    -0.2105381     0.6045247
C           4.7346774    -0.8444009     0.3510458
H           4.7361735    -1.9108527     0.1346238
C           5.9422532    -0.1465586     0.3644723
H           6.8743420    -0.6670182     0.1603705
21
308_C9H12_0-4-16-17 (-90,) energy =    -350.1961345
C           1.4972122    -0.8674427    -0.7826704
H           1.2600654     0.1662835    -1.0580969
H           0.5619220    -1.4393810    -0.7794994
H           2.1438876    -1.2765782    -1.5668052
C           2.1911838    -0.9401970     0.5905768
H           2.3901397    -1.9927670     0.8283735
H           1.5024396    -0.5777709     1.3626965
C           5.9577046     1.1967199     0.6274469
H           6.9026329     1.7337600     0.6278985
C           4.7786237     1.8588124     0.9698067
H           4.8150815     2.9128015     1.2370386
C           3.5421577     1.2008065     0.9816290
C           2.2948154     1.9633737     1.3729446
H           2.5273280     3.0147564     1.5684230
H           1.8346603     1.5540773     2.2817474
H           1.5285323     1.9346779     0.5890128
C           3.4958255    -0.1680979     0.6388159
C           4.6878262    -0.8216812     0.3015016
H           4.6494499    -1.8787168     0.0447653
C           5.9127360    -0.1548745     0.2907174
H           6.8219019    -0.6885576     0.0261709
21
308_C9H12_0-4-16-17 (-75,) energy =    -350.1956170
C           1.5758687    -1.0195236    -0.8447444
H           1.3920180    -0.0404228    -1.3020559
H           0.6318971    -1.5769656    -0.8442209
H           2.2854852    -1.5539265    -1.4857967
C           2.1278260    -0.8709274     0.5850595
H           2.2722918    -1.8733508     1.0100808
H           1.3780655    -0.3804852     1.2135542
C           5.9333428     1.1989556     0.6092565
H           6.8888171     1.7169922     0.6062876
C           4.7790768     1.8651547     1.0186261
H           4.8441264     2.9049717     1.3319008
C           3.5294998     1.2305902     1.0362610
C           2.3096060     2.0075277     1.4841202
H           2.5732713     3.0452233     1.7108905
H           1.8578867     1.5788286     2.3878691
H           1.5278354     2.0267065     0.7148810
C           3.4460650    -0.1199401     0.6358647
C           4.6131555    -0.7761928     0.2218783
H           4.5477376    -1.8183210    -0.0858789
C           5.8496834    -0.1331425     0.2061981
H           6.7389094    -0.6692850    -0.1150484
21
308_C9H12_0-4-16-17 (-60,) energy =    -350.1947126
C           1.6483537    -1.2003474    -0.8738790
H           1.5385488    -0.3237893    -1.5225309
H           0.6883663    -1.7289744    -0.8509890
H           2.3842967    -1.8644730    -1.3391853
C           2.0757769    -0.7879321     0.5457518
H           2.1370786    -1.6922636     1.1684297
H           1.2884419    -0.1730679     0.9902871
C           5.9294483     1.2008447     0.6114518
H           6.8960682     1.6976258     0.6230356
C           4.7966710     1.8662461     1.0766350
H           4.8894891     2.8843206     1.4486848
C           3.5326498     1.2596211     1.0774812
C           2.3421910     2.0400274     1.5948509
H           2.6455677     3.0444843     1.9058816
H           1.8759427     1.5552301     2.4617269
H           1.5607160     2.1543808     0.8333441
C           3.4106211    -0.0620825     0.5971931
C           4.5582290    -0.7182554     0.1301619
H           4.4701190    -1.7391091    -0.2357478
C           5.8089976    -0.1037810     0.1349282
H           6.6807673    -0.6408689    -0.2297107
21
308_C9H12_0-4-16-17 (-45,) energy =    -350.1940794
C           1.6995449    -1.3642897    -0.8582113
H           1.7401318    -0.6469259    -1.6855133
H           0.6908913    -1.7918208    -0.8283201
H           2.3922877    -2.1794424    -1.0912473
C           2.0305972    -0.6836101     0.4796424
H           1.9784287    -1.4356610     1.2817089
H           1.2391534     0.0374162     0.7040081
C           5.9317677     1.2171462     0.6280263
H           6.9079298     1.6933601     0.6680143
C           4.8126982     1.8720930     1.1395463
H           4.9258400     2.8612090     1.5781388
C           3.5380480     1.2907050     1.1051011
C           2.3673862     2.0544308     1.6877921
H           2.6985889     3.0139667     2.0967742
H           1.8772770     1.5023955     2.4993216
H           1.5969814     2.2675352     0.9357248
C           3.3856028     0.0077595     0.5331296
C           4.5209905    -0.6402754     0.0273495
H           4.4184114    -1.6313096    -0.4067663
C           5.7839845    -0.0511051     0.0702504
H           6.6441391    -0.5814347    -0.3302106
21
308_C9H12_0-4-16-17 (-30,) energy =    -350.1943882
C           1.7496949    -1.5089477    -0.8175665
H           1.9292086    -0.9784933    -1.7594373
H           0.7105991    -1.8562474    -0.8168112
H           2.3880109    -2.3988929    -0.8077534
C           2.0022652    -0.5956242     0.3893492
H           1.8304257    -1.1665969     1.3151152
H           1.2343351     0.1863152     0.3888322
C           5.9396553     1.2177752     0.6316375
H           6.9231231     1.6750151     0.7023423
C           4.8307418     1.8539800     1.1892658
H           4.9588271     2.8083509     1.6956225
C           3.5492909     1.2949323     1.1166705
C           2.3875077     2.0238745     1.7558722
H           2.7289139     2.9377508     2.2517600
H           1.8802161     1.4079740     2.5091066
H           1.6267751     2.3141965     1.0194206
C           3.3750309     0.0577981     0.4544083
C           4.4992965    -0.5739564    -0.0919024
H           4.3828669    -1.5277794    -0.5978681
C           5.7716771    -0.0063850    -0.0104864
H           6.6232747    -0.5212871    -0.4477183
21
308_C9H12_0-4-16-17 (-15,) energy =    -350.1951213
C           1.7546510    -1.6062249    -0.7411864
H           2.0294675    -1.2593026    -1.7437334
H           0.7035238    -1.9131460    -0.7681961
H           2.3499298    -2.4990295    -0.5198500
C           1.9552554    -0.5055389     0.3055303
H           1.6641748    -0.8934034     1.2940069
H           1.2396838     0.3012507     0.0973417
C           5.9387620     1.1853902     0.6336683
H           6.9323995     1.6157942     0.7269898
C           4.8452998     1.8133008     1.2315594
H           4.9952793     2.7337796     1.7918548
C           3.5532226     1.2867639     1.1306790
C           2.4019103     1.9972552     1.8056853
H           2.7542794     2.8728284     2.3594787
H           1.8763797     1.3444165     2.5144326
H           1.6518862     2.3436079     1.0821939
C           3.3503695     0.0923945     0.4003032
C           4.4571836    -0.5308197    -0.1873344
H           4.3196208    -1.4501132    -0.7480904
C           5.7420783     0.0053116    -0.0779375
H           6.5810980    -0.5009222    -0.5483441
21
308_C9H12_0-4-16-17 (0,) energy =    -350.1954634
C           1.7724932    -1.6712910    -0.6675853
H           2.1006514    -1.4905146    -1.6974036
H           0.7203033    -1.9733907    -0.7032686
H           2.3473986    -2.5176983    -0.2751093
C           1.9321120    -0.4237067     0.2055758
H           1.5298083    -0.6405227     1.2062355
H           1.2818148     0.3695011    -0.1921693
C           5.9429349     1.1714752     0.6496122
H           6.9424764     1.5811638     0.7693487
C           4.8571465     1.7796191     1.2815234
H           5.0186031     2.6647746     1.8932058
C           3.5584851     1.2780927     1.1482450
C           2.4123092     1.9679439     1.8516475
H           2.7636670     2.8420744     2.4082877
H           1.9080754     1.3012523     2.5636916
H           1.6441488     2.3099605     1.1457183
C           3.3411676     0.1274679     0.3541048
C           4.4385601    -0.4720882    -0.2735983
H           4.2897919    -1.3556359    -0.8863085
C           5.7306254     0.0394840    -0.1318733
H           6.5630491    -0.4486296    -0.6321863
21
308_C9H12_0-4-16-17 (15,) energy =    -350.1951213
C           1.7827577    -1.7214774    -0.5819589
H           2.1565413    -1.7098897    -1.6118125
H           0.7295864    -2.0200772    -0.6202620
H           2.3319493    -2.4954758    -0.0339670
C           1.9182695    -0.3541805     0.0959080
H           1.4118783    -0.4014943     1.0693681
H           1.3499280     0.3906461    -0.4824297
C           5.9450658     1.1603113     0.6672953
H           6.9483104     1.5515778     0.8145483
C           4.8629874     1.7422503     1.3290043
H           5.0309901     2.5896281     1.9903914
C           3.5592169     1.2633610     1.1624780
C           2.4176675     1.9345695     1.8920641
H           2.7739838     2.7944981     2.4674263
H           1.9196906     1.2513719     2.5929181
H           1.6443709     2.2937916     1.2009230
C           3.3340765     0.1593579     0.3071375
C           4.4274075    -0.4093071    -0.3561881
H           4.2716238    -1.2546818    -1.0191701
C           5.7239255     0.0794665    -0.1815427
H           6.5528355    -0.3858910    -0.7086671
21
308_C9H12_0-4-16-17 (30,) energy =    -350.1943882
C           1.8114171    -1.7615040    -0.4683914
H           2.2751378    -1.9387054    -1.4446644
H           0.7568166    -2.0455093    -0.5549732
H           2.2855706    -2.4346422     0.2546516
C           1.9294532    -0.2979448    -0.0226796
H           1.3214316    -0.1687855     0.8799687
H           1.4596565     0.3482055    -0.7805463
C           5.9517212     1.1691715     0.6978027
H           6.9547776     1.5465071     0.8788340
C           4.8653519     1.7138223     1.3823114
H           5.0302120     2.5185057     2.0957066
C           3.5599814     1.2523568     1.1749973
C           2.4195775     1.8945696     1.9344168
H           2.7848703     2.7113594     2.5645348
H           1.9050466     1.1792081     2.5893045
H           1.6597375     2.3102759     1.2607167
C           3.3397226     0.2024343     0.2537978
C           4.4389813    -0.3277026    -0.4333176
H           4.2853089    -1.1299246    -1.1489714
C           5.7350425     0.1432682    -0.2185384
H           6.5670389    -0.2919906    -0.7661207
21
308_C9H12_0-4-16-17 (45,) energy =    -350.1940794
C           1.7963812    -1.7602124    -0.3107032
H           2.3799577    -2.1299258    -1.1600693
H           0.7511421    -2.0383683    -0.4872334
H           2.1419158    -2.2884169     0.5850047
C           1.9215869    -0.2380769    -0.1369208
H           1.2297538     0.0765089     0.6498479
H           1.5649696     0.2533845    -1.0550181
C           5.9448706     1.1643097     0.7000531
H           6.9510363     1.5180758     0.9092222
C           4.8623417     1.6705233     1.4175513
H           5.0340148     2.4210720     2.1861346
C           3.5511301     1.2383584     1.1769482
C           2.4208043     1.8379170     1.9869783
H           2.8036172     2.5871158     2.6868543
H           1.8878253     1.0811513     2.5767085
H           1.6747015     2.3316014     1.3520482
C           3.3236992     0.2610385     0.1822310
C           4.4217203    -0.2348863    -0.5342014
H           4.2588483    -0.9801595    -1.3082610
C           5.7211022     0.2057757    -0.2861293
H           6.5503959    -0.1989121    -0.8605718
21
308_C9H12_0-4-16-17 (60,) energy =    -350.1947126
C           1.7778336    -1.7295397    -0.1420108
H           2.4806476    -2.2588087    -0.7940170
H           0.7642379    -2.0393011    -0.4216858
H           1.9645818    -2.0641500     0.8847909
C           1.9327036    -0.2032883    -0.2632570
H           1.1771852     0.2820685     0.3605915
H           1.7007434     0.0900799    -1.2973899
C           5.9437324     1.1431707     0.6901739
H           6.9505968     1.4756729     0.9288078
C           4.8603222     1.6074373     1.4338255
H           5.0324144     2.3022092     2.2530864
C           3.5471169     1.2015944     1.1571883
C           2.4154141     1.7425784     2.0060010
H           2.8012277     2.4107667     2.7821347
H           1.8576893     0.9428760     2.5090833
H           1.6906863     2.3137012     1.4123021
C           3.3216133     0.3018950     0.0931590
C           4.4211976    -0.1586289    -0.6447549
H           4.2517680    -0.8478232    -1.4694371
C           5.7216995     0.2528252    -0.3594060
H           6.5528694    -0.1188330    -0.9530675
21
308_C9H12_0-4-16-17 (75,) energy =    -350.1956170
C           1.7314273    -1.6551561     0.0343829
H           2.4703666    -2.3098075    -0.4404752
H           0.7335464    -1.9925263    -0.2693264
H           1.8204413    -1.7903464     1.1185293
C           1.9600283    -0.1853222    -0.3636209
H           1.1781798     0.4366453     0.0830883
H           1.8367273    -0.0942933    -1.4512223
C           5.9476589     1.1411486     0.6881577
H           6.9506433     1.4652344     0.9532849
C           4.8564676     1.5502102     1.4534714
H           5.0188780     2.1928447     2.3161624
C           3.5486975     1.1532186     1.1427285
C           2.4040050     1.6235492     2.0149776
H           2.7763732     2.2176870     2.8552743
H           1.8320769     0.7854438     2.4317986
H           1.6940658     2.2497372     1.4595766
C           3.3372890     0.3247665     0.0201491
C           4.4434780    -0.0832237    -0.7375068
H           4.2790767    -0.7215417    -1.6038482
C           5.7396779     0.3162174    -0.4164565
H           6.5778747    -0.0118856    -1.0256736
21
308_C9H12_0-4-16-17 (90,) energy =    -350.1961345
C           1.6668687    -1.5605516     0.1759732
H           2.3986307    -2.3176734    -0.1269114
H           0.6743314    -1.8987809    -0.1439675
H           1.6723109    -1.5173949     1.2708688
C           2.0081664    -0.1924409    -0.4440967
H           1.2310735     0.5312874    -0.1716384
H           1.9715374    -0.2830672    -1.5370195
C           5.9665286     1.1613513     0.6753161
H           6.9617455     1.4931025     0.9595452
C           4.8661016     1.5026335     1.4616967
H           5.0138980     2.1023601     2.3573074
C           3.5683755     1.0947189     1.1278220
C           2.4078438     1.5032143     2.0091837
H           2.7596913     2.0675839     2.8783036
H           1.8462312     0.6383118     2.3821409
H           1.6918605     2.1390752     1.4723060
C           3.3764372     0.3199382    -0.0368417
C           4.4895161    -0.0117382    -0.8196978
H           4.3369931    -0.6030121    -1.7207206
C           5.7773650     0.3981226    -0.4752983
H           6.6221932     0.1268627    -1.1030469
21
308_C9H12_0-4-16-17 (105,) energy =    -350.1955513
C           1.5389917    -1.4751338     0.2298493
H           2.2453184    -2.3068126     0.1288035
H           0.5694759    -1.8042384    -0.1618907
H           1.4162262    -1.2737175     1.2984193
C           2.0411652    -0.2357440    -0.5342374
H           1.2887275     0.5601107    -0.4494658
H           2.1042104    -0.4805593    -1.6011800
C           5.9477954     1.1868244     0.6912206
H           6.9283833     1.5429756     0.9960036
C           4.8310956     1.4539590     1.4831413
H           4.9513469     2.0251921     2.4012888
C           3.5501303     1.0144711     1.1253753
C           2.3781931     1.3594433     2.0183829
H           2.6674666     2.1050019     2.7656315
H           1.9988615     0.4848700     2.5613298
H           1.5352049     1.7700110     1.4496477
C           3.3919356     0.2766514    -0.0699709
C           4.5194516     0.0346277    -0.8657416
H           4.3944615    -0.5156591    -1.7961833
C           5.7902656     0.4743255    -0.4954703
H           6.6455058     0.2674081    -1.1334938
21
308_C9H12_0-4-16-17 (120,) energy =    -350.1940532
C           1.4257263    -1.3523670     0.3021380
H           2.0859549    -2.2171467     0.4350802
H           0.5024198    -1.7045276    -0.1724202
H           1.1644597    -0.9776513     1.2946921
C           2.0967482    -0.2775057    -0.5716205
H           1.4004385     0.5683696    -0.6760793
H           2.2310981    -0.6787308    -1.5827271
C           5.9751791     1.2218651     0.6690272
H           6.9473386     1.6031303     0.9704130
C           4.8629658     1.4210707     1.4857917
H           4.9765747     1.9698728     2.4184859
C           3.5913246     0.9486417     1.1345926
C           2.4284171     1.2473513     2.0566284
H           2.6601873     2.1004979     2.7024656
H           2.1935834     0.4003154     2.7136304
H           1.5141759     1.4887386     1.5029725
C           3.4391233     0.2359092    -0.0769765
C           4.5606230     0.0754832    -0.9032483
H           4.4399352    -0.4457615    -1.8506244
C           5.8209429     0.5493824    -0.5411179
H           6.6699086     0.3996918    -1.2030390
21
308_C9H12_0-4-16-17 (135,) energy =    -350.1914256
C           1.2958573    -1.2542647     0.3136558
H           1.8995889    -2.0581882     0.7511302
H           0.4831678    -1.7216906    -0.2543633
H           0.8399618    -0.6936934     1.1313385
C           2.1389591    -0.3698463    -0.6217829
H           1.5124820     0.4765193    -0.9459574
H           2.3542315    -0.9379308    -1.5339822
C           5.9691459     1.2566832     0.6317416
H           6.9299180     1.6691451     0.9284155
C           4.8645426     1.3827716     1.4720604
H           4.9723049     1.9088250     2.4183297
C           3.6051162     0.8697050     1.1307664
C           2.4531439     1.1243233     2.0801825
H           2.7209915     1.9020066     2.8025601
H           2.1780235     0.2304831     2.6525732
H           1.5535922     1.4610446     1.5520033
C           3.4598998     0.1770292    -0.0939678
C           4.5733115     0.0963196    -0.9446317
H           4.4593299    -0.4056680    -1.9032200
C           5.8184817     0.6163784    -0.5956822
H           6.6585170     0.5225482    -1.2789175
21
308_C9H12_0-4-16-17 (150,) energy =    -350.1887943
C           1.1940309    -1.1289681     0.3336049
H           1.6851541    -1.8408494     1.0073239
H           0.4527097    -1.6871168    -0.2498874
H           0.6481751    -0.4068198     0.9430237
C           2.1980570    -0.4693168    -0.6247012
H           1.6605450     0.3066165    -1.1929402
H           2.4928019    -1.2152958    -1.3723434
C           5.9602644     1.3390230     0.6029131
H           6.9067605     1.7927084     0.8847822
C           4.8710808     1.3975704     1.4685612
H           4.9773840     1.9107285     2.4218856
C           3.6266648     0.8301983     1.1517049
C           2.4993723     1.0225407     2.1462500
H           2.8222209     1.6821134     2.9578712
H           2.1720991     0.0815636     2.6009044
H           1.6187812     1.4830763     1.6832660
C           3.4852886     0.1491689    -0.0799472
C           4.5870044     0.1272598    -0.9516931
H           4.4782671    -0.3742005    -1.9114545
C           5.8121845     0.7045229    -0.6280364
H           6.6400097     0.6549030    -1.3305449
21
308_C9H12_0-4-16-17 (165,) energy =    -350.1868124
C           1.1080211    -1.0048833     0.2938284
H           1.4470767    -1.6558724     1.1069536
H           0.3792225    -1.5730113    -0.2958612
H           0.5783368    -0.1572708     0.7338873
C           2.2613362    -0.5785664    -0.6229573
H           1.8404636     0.0688818    -1.4077010
H           2.6109896    -1.4722795    -1.1559004
C           5.9466278     1.4094085     0.5696188
H           6.8781566     1.9016354     0.8361574
C           4.8751309     1.4105941     1.4570708
H           4.9810830     1.9153194     2.4148277
C           3.6475487     0.7913016     1.1640407
C           2.5510438     0.9170188     2.2047432
H           2.9151970     1.4907471     3.0626900
H           2.2097648    -0.0517340     2.5818230
H           1.6715044     1.4423176     1.8155032
C           3.5079202     0.1230905    -0.0738373
C           4.5968966     0.1481807    -0.9635536
H           4.4899096    -0.3531278    -1.9239692
C           5.8018591     0.7743818    -0.6622563
H           6.6172276     0.7621301    -1.3808258
21
308_C9H12_0-4-16-17 (180,) energy =    -350.1859751
C           1.0332756    -0.8605739     0.2243970
H           1.2109704    -1.3982518     1.1600271
H           0.3216503    -1.4541514    -0.3611641
H           0.5446834     0.0883625     0.4628121
C           2.3120944    -0.6741437    -0.5996583
H           2.0257943    -0.2133762    -1.5558889
H           2.6793962    -1.6740453    -0.8716064
C           5.9255738     1.4738254     0.5381887
H           6.8422712     2.0009981     0.7888402
C           4.8727983     1.4277408     1.4457843
H           4.9806251     1.9254578     2.4069697
C           3.6642176     0.7608873     1.1748789
C           2.6078258     0.7981338     2.2636828
H           2.9784351     1.3678933     3.1214596
H           2.3448491    -0.2000548     2.6282195
H           1.6808815     1.2776386     1.9334256
C           3.5187300     0.1125651    -0.0722223
C           4.5951343     0.1709881    -0.9762865
H           4.4868135    -0.3272191    -1.9383705
C           5.7832482     0.8349035    -0.6923965
H           6.5868358     0.8518487    -1.4240242
