17
223_C7H7ClOS_4-6-11-16 (-165,) energy =   -1204.5020966
C           7.2390079    -2.2829007    -1.6152714
H           8.1419971    -2.2304742    -2.2164289
C           6.1213641    -2.9816554    -2.0741784
H           6.1404416    -3.4846088    -3.0364986
C           4.9752763    -3.0343303    -1.2872147
H           4.1208383    -3.6046100    -1.6407509
C           4.9116933    -2.3930205    -0.0411239
C           6.0464160    -1.7120550     0.4165178
Cl          6.1253537    -0.9016171     1.9703332
C           7.2011230    -1.6566929    -0.3740100
H           8.0639740    -1.1168776     0.0018190
S           3.3411210    -2.6405708     0.9168577
C           2.2008578    -2.0009779    -0.3855731
H           2.2395666    -2.5956366    -1.2996755
H           2.4525867    -0.9563283    -0.5828406
H           1.2037988    -2.0650963     0.0574703
O           3.2017080    -1.6539346     2.0449990
17
223_C7H7ClOS_4-6-11-16 (-150,) energy =   -1204.5014335
C           7.2676429    -2.2859874    -1.6042356
H           8.1769632    -2.2775151    -2.1980444
C           6.0988876    -2.8592366    -2.1041470
H           6.0828276    -3.3090977    -3.0925009
C           4.9413154    -2.8523854    -1.3299885
H           4.0451871    -3.3088976    -1.7349912
C           4.9160522    -2.2703064    -0.0536796
C           6.1117357    -1.7388132     0.4524121
Cl          6.2578196    -1.0844519     2.0739851
C           7.2728273    -1.7328390    -0.3275403
H           8.1769878    -1.2984859     0.0857103
S           3.3825103    -2.4267079     0.9763238
C           2.1463665    -2.1619680    -0.3663441
H           2.0775565    -3.0237206    -1.0332435
H           2.3796078    -1.2474674    -0.9161153
H           1.2017927    -2.0423611     0.1697514
O           3.2230755    -1.2399583     1.8907082
17
223_C7H7ClOS_4-6-11-16 (-135,) energy =   -1204.5025463
C           7.2935692    -2.2973893    -1.5702451
H           8.2156762    -2.3182712    -2.1437132
C           6.1003163    -2.7494832    -2.1306186
H           6.0785327    -3.1310805    -3.1471876
C           4.9235557    -2.7076128    -1.3842005
H           4.0070358    -3.0556634    -1.8454612
C           4.9083696    -2.2092874    -0.0741130
C           6.1288939    -1.8025976     0.4891117
Cl          6.2592620    -1.2837327     2.1604529
C           7.3076089    -1.8278626    -0.2591995
H           8.2301280    -1.4897103     0.2006923
S           3.3934360    -2.2819121     0.9833515
C           2.1253005    -2.3528520    -0.3469340
H           2.1166554    -3.3300665    -0.8356807
H           2.2722148    -1.5428975    -1.0653129
H           1.1823828    -2.2052190     0.1848025
O           3.1816037    -0.9628909     1.6828652
17
223_C7H7ClOS_4-6-11-16 (-120,) energy =   -1204.5039437
C           7.3118128    -2.3230416    -1.5578379
H           8.2387531    -2.3793734    -2.1210696
C           6.0998938    -2.6665345    -2.1540067
H           6.0695756    -2.9947292    -3.1888546
C           4.9156914    -2.5836580    -1.4213267
H           3.9848621    -2.8439822    -1.9107709
C           4.9171239    -2.1565607    -0.0876957
C           6.1518064    -1.8431875     0.5027053
Cl          6.2661679    -1.3806064     2.1925622
C           7.3389231    -1.9127516    -0.2264840
H           8.2742364    -1.6532268     0.2579361
S           3.4123379    -2.1075317     0.9809957
C           2.1380381    -2.4605181    -0.2915788
H           2.2344591    -3.4800911    -0.6736412
H           2.1784805    -1.7208243    -1.0950036
H           1.1911704    -2.3600649     0.2442155
O           3.1636560    -0.6934880     1.4456961
17
223_C7H7ClOS_4-6-11-16 (-105,) energy =   -1204.5048841
C           7.2946349    -2.3578263    -1.5539904
H           8.2210639    -2.4564797    -2.1123103
C           6.0678707    -2.5861700    -2.1753548
H           6.0263806    -2.8629995    -3.2247298
C           4.8846467    -2.4531208    -1.4484964
H           3.9418458    -2.6247103    -1.9545284
C           4.9039009    -2.0970872    -0.0951696
C           6.1497304    -1.8786219     0.5126399
Cl          6.2657267    -1.4526413     2.2134081
C           7.3377799    -2.0028428    -0.2068743
H           8.2838767    -1.8245261     0.2929773
S           3.4028387    -1.9234352     0.9638074
C           2.1403558    -2.5239738    -0.2226128
H           2.3336991    -3.5615970    -0.5073811
H           2.0884686    -1.8674187    -1.0949147
H           1.1970742    -2.4617871     0.3253157
O           3.1123516    -0.4595474     1.1932171
17
223_C7H7ClOS_4-6-11-16 (-90,) energy =   -1204.5055564
C           7.2868541    -2.3821351    -1.5414571
H           8.2138772    -2.5202627    -2.0903895
C           6.0580912    -2.4963666    -2.1911473
H           6.0169859    -2.7212221    -3.2528758
C           4.8754221    -2.3156962    -1.4751216
H           3.9295900    -2.3956961    -1.9990016
C           4.8960877    -2.0279253    -0.1058063
C           6.1423395    -1.9115431     0.5268480
Cl          6.2593248    -1.5438947     2.2424627
C           7.3319615    -2.0876643    -0.1801250
H           8.2796703    -1.9933373     0.3391531
S           3.3855074    -1.7551677     0.9164946
C           2.1681283    -2.6130098    -0.1543319
H           2.4656810    -3.6523964    -0.3174435
H           2.0387098    -2.0789784    -1.0990765
H           1.2281894    -2.5785856     0.4018812
O           3.0256549    -0.2880119     0.9023274
17
223_C7H7ClOS_4-6-11-16 (-75,) energy =   -1204.5065618
C           7.2747539    -2.4152862    -1.5438773
H           8.1982147    -2.5999364    -2.0851436
C           6.0526393    -2.4021924    -2.2176087
H           6.0148184    -2.5731374    -3.2894133
C           4.8760729    -2.1638865    -1.5104200
H           3.9328412    -2.1376889    -2.0458621
C           4.8964623    -1.9421477    -0.1287634
C           6.1338023    -1.9510922     0.5284785
Cl          6.2519364    -1.6711701     2.2615530
C           7.3189104    -2.1881976    -0.1700537
H           8.2619885    -2.1923500     0.3659027
S           3.3744617    -1.5783593     0.8436638
C           2.2195674    -2.6777219    -0.0663497
H           2.5956401    -3.7044106    -0.0598298
H           2.0619667    -2.3192462    -1.0865228
H           1.2736324    -2.6220568     0.4781456
O           2.9467744    -0.1537976     0.5763665
17
223_C7H7ClOS_4-6-11-16 (-60,) energy =   -1204.5083799
C           7.2557177    -2.4459572    -1.5290196
H           8.1796459    -2.6768614    -2.0514659
C           6.0596909    -2.3092359    -2.2371349
H           6.0440310    -2.4300971    -3.3162748
C           4.8839838    -2.0125524    -1.5529622
H           3.9597314    -1.8729701    -2.1058631
C           4.8824474    -1.8488936    -0.1633180
C           6.0891414    -1.9853388     0.5308591
Cl          6.1691117    -1.8005681     2.2794715
C           7.2744853    -2.2828137    -0.1457920
H           8.1975657    -2.3837220     0.4149446
S           3.3335521    -1.4122736     0.7263810
C           2.2817655    -2.7400537     0.0146339
H           2.7038547    -3.7147066     0.2757535
H           2.1899817    -2.6321252    -1.0688167
H           1.2968535    -2.6223232     0.4740305
O           2.8410295    -0.0889358     0.1875100
17
223_C7H7ClOS_4-6-11-16 (-45,) energy =   -1204.5109546
C           7.2258365    -2.4639349    -1.5178809
H           8.1457786    -2.7327194    -2.0291432
C           6.0640691    -2.2028993    -2.2494587
H           6.0733624    -2.2655920    -3.3336405
C           4.8933400    -1.8564643    -1.5809958
H           3.9926816    -1.6049694    -2.1351483
C           4.8698894    -1.7647568    -0.1857223
C           6.0357273    -2.0328428     0.5339610
Cl          6.0588721    -1.9627210     2.2930485
C           7.2170267    -2.3782681    -0.1271534
H           8.1135796    -2.5777893     0.4501692
S           3.2969179    -1.2871981     0.6342431
C           2.3574612    -2.7927100     0.1522477
H           2.8261426    -3.6704218     0.6067927
H           2.3274426    -2.8889917    -0.9359928
H           1.3437834    -2.6640811     0.5407977
O           2.7325216    -0.1199244    -0.1426389
17
223_C7H7ClOS_4-6-11-16 (-30,) energy =   -1204.5137098
C           7.2172761    -2.4728468    -1.5161694
H           8.1428174    -2.7648359    -2.0040881
C           6.1053469    -2.1051160    -2.2785239
H           6.1596577    -2.1100380    -3.3632435
C           4.9265634    -1.7258409    -1.6411082
H           4.0584417    -1.3910692    -2.2036252
C           4.8528262    -1.7092778    -0.2465784
C           5.9637519    -2.0906636     0.5055073
Cl          5.8915783    -2.1326933     2.2651530
C           7.1521403    -2.4669052    -0.1233133
H           8.0089840    -2.7529424     0.4775989
S           3.2601392    -1.1938668     0.5091469
C           2.4191007    -2.8159770     0.2980746
H           2.9420758    -3.5744423     0.8876153
H           2.4052182    -3.0854562    -0.7611409
H           1.3972635    -2.6911796     0.6661622
O           2.6286044    -0.2192496    -0.4589390
17
223_C7H7ClOS_4-6-11-16 (-15,) energy =   -1204.5159064
C           7.2269849    -2.4653215    -1.5233721
H           8.1650112    -2.7590677    -1.9857215
C           6.1669080    -2.0090737    -2.3100375
H           6.2744446    -1.9468991    -3.3890258
C           4.9703708    -1.6265682    -1.7059441
H           4.1337572    -1.2353425    -2.2796187
C           4.8298637    -1.7017056    -0.3202513
C           5.8916853    -2.1636704     0.4571954
Cl          5.7268821    -2.2966176     2.2073511
C           7.0948291    -2.5450026    -0.1364411
H           7.9114930    -2.8987945     0.4841028
S           3.2286651    -1.1454862     0.3866153
C           2.4567106    -2.8141708     0.4490607
H           3.0215613    -3.4520695     1.1340193
H           2.4367712    -3.2375418    -0.5582683
H           1.4370740    -2.6747421     0.8177707
O           2.5366443    -0.3684385    -0.7109134
17
223_C7H7ClOS_4-6-11-16 (0,) energy =   -1204.5164080
C           7.2537664    -2.4361578    -1.5259444
H           8.2089403    -2.7124427    -1.9632186
C           6.2365642    -1.9137855    -2.3264919
H           6.3949777    -1.7786349    -3.3924416
C           5.0169495    -1.5553555    -1.7532253
H           4.2066098    -1.1276369    -2.3380985
C           4.8037450    -1.7357737    -0.3869328
C           5.8354718    -2.2356689     0.4094254
Cl          5.6182752    -2.4188265     2.1503994
C           7.0586797    -2.5970190    -0.1531283
H           7.8454427    -2.9914895     0.4813647
S           3.2017388    -1.1271925     0.2758590
C           2.4519549    -2.7797172     0.5804724
H           3.0307006    -3.3261027     1.3280741
H           2.4124469    -3.3228719    -0.3668402
H           1.4390165    -2.5945324     0.9471886
O           2.4599930    -0.5410515    -0.9053339
17
223_C7H7ClOS_4-6-11-16 (15,) energy =   -1204.5142766
C           7.2891008    -2.4011103    -1.5337080
H           8.2633214    -2.6399207    -1.9504928
C           6.2992576    -1.8284236    -2.3327113
H           6.4972928    -1.6103623    -3.3780361
C           5.0545731    -1.5234331    -1.7834264
H           4.2613498    -1.0731671    -2.3743453
C           4.7758429    -1.8206322    -0.4478480
C           5.7964993    -2.3360134     0.3568452
Cl          5.5641721    -2.5721440     2.0905093
C           7.0427515    -2.6508287    -0.1830124
H           7.8115085    -3.0714681     0.4566921
S           3.1658781    -1.1822708     0.1740720
C           2.4371507    -2.7856408     0.7068204
H           3.0127803    -3.2350732     1.5163235
H           2.3925854    -3.4420025    -0.1654595
H           1.4247542    -2.5499024     1.0445846
O           2.3692125    -0.7996894    -1.0551171
17
223_C7H7ClOS_4-6-11-16 (30,) energy =   -1204.5095155
C           7.3305816    -2.3689942    -1.5515501
H           8.3204808    -2.5799713    -1.9457001
C           6.3726113    -1.7336707    -2.3410034
H           6.6090403    -1.4334919    -3.3575075
C           5.1079463    -1.4729242    -1.8179359
H           4.3388949    -0.9920232    -2.4160348
C           4.7637164    -1.8787749    -0.5232520
C           5.7630727    -2.4375385     0.2827969
Cl          5.5139184    -2.7746361     1.9974742
C           7.0290200    -2.7148101    -0.2349513
H           7.7730436    -3.1801887     0.4029398
S           3.1336532    -1.2146104     0.0328052
C           2.4155905    -2.7117969     0.8252518
H           2.9009433    -2.9492106     1.7703607
H           2.4798613    -3.5448222     0.1216476
H           1.3674098    -2.4484771     0.9874983
O           2.3030959    -1.0649818    -1.2254497
17
223_C7H7ClOS_4-6-11-16 (45,) energy =   -1204.5039332
C           7.3782830    -2.3155676    -1.5627755
H           8.3862474    -2.4870964    -1.9291637
C           6.4486819    -1.6188242    -2.3342302
H           6.7219833    -1.2308361    -3.3108899
C           5.1624942    -1.4153587    -1.8443609
H           4.4212005    -0.8981296    -2.4467127
C           4.7583351    -1.9252386    -0.6005151
C           5.7264116    -2.5616936     0.1869407
Cl          5.4303555    -3.1031678     1.8406059
C           7.0176222    -2.7817033    -0.3015073
H           7.7334474    -3.3071814     0.3216889
S           3.0730073    -1.2981745    -0.1529256
C           2.4192530    -2.6186834     0.9455216
H           2.8088159    -2.5289528     1.9586024
H           2.6275101    -3.6037852     0.5239776
H           1.3421980    -2.4328913     0.9321415
O           2.2377089    -1.4395536    -1.4085930
17
223_C7H7ClOS_4-6-11-16 (60,) energy =   -1204.4997812
C           7.4337230    -2.2540257    -1.5378926
H           8.4625341    -2.3673651    -1.8669602
C           6.5185222    -1.5247164    -2.2969566
H           6.8212596    -1.0573504    -3.2290669
C           5.2089485    -1.3945575    -1.8499659
H           4.4893034    -0.8444578    -2.4501242
C           4.7642349    -1.9930227    -0.6579283
C           5.7051594    -2.7037590     0.0986831
Cl          5.3521350    -3.4762518     1.6455852
C           7.0263888    -2.8389022    -0.3436993
H           7.7251357    -3.4070653     0.2611110
S           2.9987785    -1.4888988    -0.3655457
C           2.4359169    -2.5203834     1.0368447
H           2.9321040    -2.2345709     1.9647907
H           2.5740125    -3.5799855     0.8187960
H           1.3675996    -2.2937444     1.0943062
O           2.2050958    -1.9800462    -1.5557425
17
223_C7H7ClOS_4-6-11-16 (75,) energy =   -1204.4991161
C           7.4417309    -2.1918201    -1.5028234
H           8.4850799    -2.2633292    -1.7960510
C           6.5458237    -1.4208176    -2.2428339
H           6.8766444    -0.8823811    -3.1257117
C           5.2182463    -1.3413243    -1.8375051
H           4.5213279    -0.7386689    -2.4146007
C           4.7403726    -2.0167705    -0.7009019
C           5.6534782    -2.8088783     0.0092730
Cl          5.2288438    -3.7702568     1.4246873
C           6.9953559    -2.8818788    -0.3802374
H           7.6771500    -3.4942897     0.2002621
S           2.9155297    -1.7074957    -0.5548017
C           2.4486928    -2.3748968     1.0809114
H           3.0657568    -1.9386423     1.8692223
H           2.5093210    -3.4628114     1.0843932
H           1.4077301    -2.0627678     1.2043773
O           2.2065728    -2.5412245    -1.5966236
17
223_C7H7ClOS_4-6-11-16 (90,) energy =   -1204.5012515
C           7.4318067    -2.1451471    -1.4696896
H           8.4857618    -2.1735293    -1.7307626
C           6.5464080    -1.3365235    -2.1804334
H           6.8966209    -0.7278336    -3.0084874
C           5.2024591    -1.3146831    -1.8191537
H           4.5095597    -0.6805090    -2.3665827
C           4.7075410    -2.0750767    -0.7473450
C           5.6086484    -2.9186415    -0.0802924
Cl          5.1298881    -4.0166940     1.2096166
C           6.9633307    -2.9353283    -0.4225919
H           7.6382205    -3.5827707     0.1272446
S           2.8663908    -1.9296049    -0.6702836
C           2.4817723    -2.2531027     1.0907569
H           3.1630639    -1.6930380     1.7365494
H           2.5278007    -3.3207029     1.3008123
H           1.4584134    -1.8918054     1.2250763
O           2.2368322    -3.0181961    -1.5075065
17
223_C7H7ClOS_4-6-11-16 (105,) energy =   -1204.5042623
C           7.4243920    -2.1112402    -1.4237721
H           8.4864090    -2.0977829    -1.6514093
C           6.5461005    -1.2630393    -2.0955321
H           6.9107550    -0.5839218    -2.8602171
C           5.1885899    -1.2996806    -1.7842571
H           4.4953941    -0.6439522    -2.3049705
C           4.6833516    -2.1495575    -0.7897752
C           5.5767527    -3.0356678    -0.1686492
Cl          5.0559226    -4.2560564     0.9854810
C           6.9404053    -3.0005610    -0.4650441
H           7.6111561    -3.6829714     0.0463300
S           2.8424804    -2.1104249    -0.7319527
C           2.5315475    -2.1211360     1.0758414
H           3.1383535    -1.3429380     1.5481109
H           2.7422379    -3.0988235     1.5060070
H           1.4701075    -1.8851936     1.1901578
O           2.2777871    -3.3695759    -1.3440321
17
223_C7H7ClOS_4-6-11-16 (120,) energy =   -1204.5071430
C           7.4071382    -2.0925311    -1.3649001
H           8.4753017    -2.0441242    -1.5562261
C           6.5357733    -1.2072854    -1.9975467
H           6.9137013    -0.4645523    -2.6936559
C           5.1680529    -1.2932365    -1.7422268
H           4.4769371    -0.6184017    -2.2409209
C           4.6537090    -2.2288408    -0.8358802
C           5.5403286    -3.1400973    -0.2441745
Cl          4.9872956    -4.4314410     0.8107590
C           6.9110466    -3.0628430    -0.4939362
H           7.5785871    -3.7702755    -0.0131521
S           2.8167606    -2.2507182    -0.7688032
C           2.5874632    -1.9958533     1.0363904
H           3.0539305    -1.0461359     1.3151678
H           3.0052520    -2.8225180     1.6106073
H           1.5073282    -1.9407324     1.1961801
O           2.2929980    -3.6135265    -1.1473371
17
223_C7H7ClOS_4-6-11-16 (135,) energy =   -1204.5083796
C           7.4010894    -2.0662114    -1.3316409
H           8.4718800    -1.9741765    -1.4892554
C           6.5211439    -1.1568441    -1.9176576
H           6.8965669    -0.3499003    -2.5397881
C           5.1496453    -1.3019541    -1.7137050
H           4.4515955    -0.6142828    -2.1850497
C           4.6433706    -2.3281239    -0.9080793
C           5.5387669    -3.2405878    -0.3351165
Cl          4.9916668    -4.5733273     0.6670286
C           6.9125074    -3.1092904    -0.5447276
H           7.5888394    -3.8252208    -0.0893674
S           2.8078063    -2.3852285    -0.8187318
C           2.6507563    -1.9147699     0.9535766
H           3.0858664    -0.9215660     1.0978720
H           3.1400521    -2.6548079     1.5890349
H           1.5794331    -1.8901132     1.1701076
O           2.3004601    -3.7958412    -0.9725204
17
223_C7H7ClOS_4-6-11-16 (150,) energy =   -1204.5077143
C           7.3813350    -2.0485070    -1.2911530
H           8.4507049    -1.9154760    -1.4274621
C           6.4824625    -1.1199243    -1.8169157
H           6.8419499    -0.2553423    -2.3668967
C           5.1139131    -1.3194469    -1.6462866
H           4.4026181    -0.6191914    -2.0788697
C           4.6284166    -2.4252390    -0.9390566
C           5.5409310    -3.3400288    -0.4011157
Cl          5.0250588    -4.7225809     0.5465700
C           6.9135476    -3.1567336    -0.5864958
H           7.6044604    -3.8808096    -0.1671972
S           2.7910336    -2.5038324    -0.8294641
C           2.6791553    -1.8041203     0.8714385
H           3.1103480    -0.7993006     0.8837866
H           3.1974728    -2.4628724     1.5719146
H           1.6153072    -1.7623752     1.1199625
O           2.2890567    -3.9209255    -0.7500401
17
223_C7H7ClOS_4-6-11-16 (165,) energy =   -1204.5059098
C           7.3765356    -2.0362507    -1.2723169
H           8.4403976    -1.8634183    -1.4067850
C           6.4467444    -1.0898745    -1.7067196
H           6.7759802    -0.1706446    -2.1819916
C           5.0875725    -1.3409778    -1.5399192
H           4.3552567    -0.6237143    -1.9060095
C           4.6371005    -2.5182839    -0.9294180
C           5.5781380    -3.4487163    -0.4768142
Cl          5.1244464    -4.9193113     0.3631891
C           6.9444255    -3.2110037    -0.6618046
H           7.6577915    -3.9498236    -0.3115475
S           2.7967584    -2.6354254    -0.8155055
C           2.6703836    -1.6822122     0.7578384
H           3.0887068    -0.6809172     0.6269105
H           3.1958330    -2.2264754     1.5464773
H           1.6051278    -1.6205596     0.9958800
O           2.3191262    -4.0263025    -0.4984253
17
223_C7H7ClOS_4-6-11-16 (180,) energy =   -1204.5039413
C           7.3770632    -2.0405746    -1.2654526
H           8.4335397    -1.8392351    -1.4169944
C           6.4188462    -1.0789574    -1.5926881
H           6.7173706    -0.1186326    -2.0025491
C           5.0712775    -1.3646144    -1.3989582
H           4.3224091    -0.6280458    -1.6836236
C           4.6541885    -2.5940734    -0.8695406
C           5.6226841    -3.5469245    -0.5385257
Cl          5.2324279    -5.1092121     0.1559235
C           6.9796383    -3.2678957    -0.7444633
H           7.7130600    -4.0236679    -0.4833240
S           2.8142840    -2.7710266    -0.7443491
C           2.6208864    -1.5653477     0.6389333
H           2.9991885    -0.5803098     0.3573379
H           3.1483047    -1.9525559     1.5141932
H           1.5484019    -1.5142786     0.8443546
O           2.3911773    -4.0970035    -0.1741056
