16
158_C4H9NO2_0-2-3-4 (-165,) energy =    -363.0312907
N           1.4101295    -0.7822245    -0.5490879
H           1.6820730    -0.0657957    -1.2078304
C           2.1022978    -0.8905211     0.6260251
C           3.2295405     0.1527098     0.7778785
O           4.1418488    -0.1462637     1.7938153
C           4.9594784    -1.2725465     1.5183891
H           5.6614418    -1.3575071     2.3514484
H           5.5298247    -1.1320571     0.5852197
H           4.3686015    -2.1930267     1.4492280
H           2.7720854     1.1130697     1.0467342
H           3.7381924     0.2888487    -0.1951301
O           1.8504545    -1.7211104     1.4864900
C           0.2516111    -1.6023986    -0.8567203
H           0.3836430    -2.1271554    -1.8098706
H          -0.6655879    -1.0026033    -0.9071580
H           0.1529312    -2.3352447    -0.0546941
16
158_C4H9NO2_0-2-3-4 (-150,) energy =    -363.0307963
N           1.4889742    -0.8196601    -0.5284603
H           1.8551106    -0.1992386    -1.2364740
C           2.0570439    -0.8055276     0.7156628
C           3.1949948     0.2236690     0.8753197
O           4.1731078    -0.1629291     1.7998247
C           4.9098175    -1.3078948     1.4069290
H           5.6739774    -1.4643357     2.1720492
H           5.4057811    -1.1521489     0.4344348
H           4.2727742    -2.1994756     1.3493122
H           2.7588020     1.1528406     1.2608595
H           3.6447702     0.4476475    -0.1102756
O           1.6975520    -1.5286149     1.6332927
C           0.3378752    -1.6427414    -0.8550554
H           0.5488466    -2.2902044    -1.7138867
H          -0.5437249    -1.0305490    -1.0817062
H           0.1267471    -2.2625305     0.0175574
16
158_C4H9NO2_0-2-3-4 (-135,) energy =    -363.0299388
N           1.5646226    -0.8508679    -0.4906766
H           2.0210900    -0.3252068    -1.2219949
C           2.0023991    -0.7035312     0.7966176
C           3.1668633     0.2929428     0.9667872
O           4.1884249    -0.1899168     1.8004676
C           4.8450566    -1.3358579     1.2909774
H           5.6523488    -1.5696231     1.9891042
H           5.2786074    -1.1442147     0.2952072
H           4.1686142    -2.1990105     1.2268700
H           2.7734458     1.1911754     1.4545862
H           3.5720522     0.5896872    -0.0187442
O           1.5251488    -1.3060975     1.7474230
C           0.4309291    -1.6881316    -0.8406900
H           0.7131728    -2.4401235    -1.5865082
H          -0.4013913    -1.0930399    -1.2360211
H           0.1084682    -2.1917102     0.0718259
16
158_C4H9NO2_0-2-3-4 (-120,) energy =    -363.0290294
N           1.6378303    -0.8999824    -0.4499863
H           2.1871868    -0.4727885    -1.1813847
C           1.9352197    -0.6057973     0.8527368
C           3.1413688     0.3346627     1.0444251
O           4.1761327    -0.2507003     1.8001941
C           4.7870474    -1.3589880     1.1679146
H           5.6117363    -1.6714306     1.8129207
H           5.1908885    -1.0888665     0.1776510
H           4.0912521    -2.2015648     1.0478560
H           2.8000111     1.2013678     1.6177337
H           3.5247729     0.6907329     0.0703005
O           1.3212476    -1.0634650     1.8060837
C           0.5116109    -1.7364591    -0.8250260
H           0.8364763    -2.5728066    -1.4544018
H          -0.2527345    -1.1638406    -1.3646785
H           0.0794874    -2.1272178     0.0973969
16
158_C4H9NO2_0-2-3-4 (-105,) energy =    -363.0289041
N           1.2173878    -1.6593113    -0.0756797
H           1.3253402    -2.2866070     0.7083296
C           2.2488390    -0.8134874    -0.3754531
C           3.5423201    -1.0799074     0.4037749
O           3.6635031    -0.0768206     1.3904442
C           4.9045610    -0.1290447     2.0629673
H           4.9059027     0.6839676     2.7932699
H           5.7479827     0.0096416     1.3682521
H           5.0441396    -1.0864382     2.5918802
H           4.3748880    -1.0324230    -0.3145269
H           3.5480727    -2.0853263     0.8624620
O           2.1756521     0.0759296    -1.2106874
C          -0.1054753    -1.4975639    -0.6527322
H          -0.8001808    -1.0150000     0.0468608
H          -0.5157376    -2.4691338    -0.9473245
H          -0.0021284    -0.8629309    -1.5339393
16
158_C4H9NO2_0-2-3-4 (-90,) energy =    -363.0295338
N           1.2503889    -1.6264198    -0.0542878
H           1.3582163    -2.1277644     0.8165747
C           2.2904564    -0.8407958    -0.4679281
C           3.5918064    -1.0518923     0.3149501
O           3.5830899    -0.1559105     1.4107850
C           4.8026931    -0.1664981     2.1246438
H           4.7009816     0.5526236     2.9413187
H           5.6486319     0.1316046     1.4856699
H           5.0202945    -1.1613862     2.5469915
H           4.4245945    -0.8357898    -0.3691691
H           3.6911529    -2.0956600     0.6626261
O           2.2157248    -0.0519032    -1.3990307
C          -0.0914015    -1.4631352    -0.5871065
H          -0.7075664    -0.8062174     0.0409540
H          -0.5834831    -2.4369402    -0.6735543
H          -0.0011602    -1.0113388    -1.5758501
16
158_C4H9NO2_0-2-3-4 (-75,) energy =    -363.0310527
N           1.2893169    -1.5811314    -0.0145893
H           1.4023856    -1.9007449     0.9385745
C           2.3314902    -0.8769056    -0.5528202
C           3.6418767    -1.0195391     0.2292161
O           3.5310449    -0.2378119     1.4068298
C           4.7241671    -0.2327653     2.1656462
H           4.5419674     0.3910884     3.0443283
H           5.5653776     0.1884107     1.5936059
H           5.0016801    -1.2472939     2.4952783
H           4.4514029    -0.6547487    -0.4172449
H           3.8400432    -2.0769198     0.4777017
O           2.2578956    -0.2368234    -1.5920106
C          -0.0642202    -1.4493582    -0.5277419
H          -0.6368446    -0.6790084     0.0057864
H          -0.5910678    -2.4050715    -0.4451802
H           0.0062577    -1.1629225    -1.5778449
16
158_C4H9NO2_0-2-3-4 (-60,) energy =    -363.0334494
N           1.3044281    -1.4992922     0.0357635
H           1.4270170    -1.6388457     1.0308866
C           2.3454137    -0.8965737    -0.6134455
C           3.6638331    -0.9615434     0.1631393
O           3.4826244    -0.3066873     1.4084295
C           4.6552593    -0.3103087     2.1998128
H           4.4155749     0.2102264     3.1304307
H           5.4823875     0.2141778     1.6974722
H           4.9844692    -1.3355434     2.4338408
H           4.4305335    -0.4621575    -0.4437251
H           3.9646157    -2.0131189     0.3122740
O           2.2762819    -0.4323967    -1.7428913
C          -0.0521090    -1.4392819    -0.4824152
H          -0.6111724    -0.5807959    -0.0865741
H          -0.5891936    -2.3589535    -0.2305466
H           0.0098614    -1.3411303    -1.5670440
16
158_C4H9NO2_0-2-3-4 (-45,) energy =    -363.0359793
N           1.3180993    -1.3966702     0.0663241
H           1.4491914    -1.4020135     1.0700164
C           2.3696656    -0.9259611    -0.6635134
C           3.6887723    -0.9045333     0.1121904
O           3.4627811    -0.3691344     1.4059233
C           4.6254654    -0.3748025     2.2124517
H           4.3470754     0.0493594     3.1804348
H           5.4255270     0.2371709     1.7690781
H           5.0100098    -1.3961444     2.3623110
H           4.4006043    -0.2924836    -0.4574422
H           4.0899683    -1.9307558     0.1761214
O           2.3201686    -0.6450363    -1.8536455
C          -0.0340148    -1.4187915    -0.4632607
H          -0.6038112    -0.5226639    -0.1831285
H          -0.5657916    -2.3036277    -0.0992313
H           0.0349713    -1.4598606    -1.5512396
16
158_C4H9NO2_0-2-3-4 (-30,) energy =    -363.0378129
N           1.3484925    -1.2681921     0.0418445
H           1.4684938    -1.1902762     1.0433189
C           2.4382139    -0.9698166    -0.7151943
C           3.7393755    -0.8647760     0.0823397
O           3.4749248    -0.4243062     1.4025092
C           4.6298769    -0.4023077     2.2193460
H           4.3183972    -0.0558411     3.2079057
H           5.3906527     0.2859485     1.8209504
H           5.0791778    -1.4035362     2.3123086
H           4.4025087    -0.1689745    -0.4501985
H           4.2257608    -1.8551648     0.0874321
O           2.4418049    -0.8769075    -1.9366174
C           0.0146446    -1.3715512    -0.5191737
H          -0.6061194    -0.5056962    -0.2552168
H          -0.4831442    -2.2817078    -0.1666310
H           0.1166318    -1.4144996    -1.6046274
16
158_C4H9NO2_0-2-3-4 (-15,) energy =    -363.0387267
N           1.2420227    -1.2392371     0.1136580
H           1.3737415    -1.0957501     1.1058897
C           2.3435084    -1.1077228    -0.6685700
C           3.6497976    -0.9064165     0.1010469
O           3.3999114    -0.5598567     1.4508701
C           4.5789842    -0.4639373     2.2262836
H           4.2760255    -0.1975677     3.2419193
H           5.2540310     0.3135026     1.8373809
H           5.1247629    -1.4200308     2.2512849
H           4.2255163    -0.1245568    -0.4151091
H           4.2295333    -1.8419789     0.0334110
O           2.3558615    -1.1878933    -1.8915084
C          -0.0886306    -1.4242560    -0.4311342
H          -0.7293613    -0.5564636    -0.2305318
H          -0.5643563    -2.3171744    -0.0092077
H           0.0130140    -1.5481823    -1.5104841
16
158_C4H9NO2_0-2-3-4 (0,) energy =    -363.0389546
N           1.2703985    -1.1291524     0.0853716
H           1.3823351    -0.9573784     1.0753641
C           2.4028575    -1.1474294    -0.6611772
C           3.6923893    -0.8936212     0.1208535
O           3.4310181    -0.6869716     1.4962484
C           4.6016534    -0.4590347     2.2559773
H           4.2897730    -0.3139653     3.2932389
H           5.1367724     0.4394748     1.9119601
H           5.2895876    -1.3169557     2.2033868
H           4.1892364    -0.0190141    -0.3274095
H           4.3538751    -1.7603126    -0.0341279
O           2.4506546    -1.3451120    -1.8700328
C          -0.0455879    -1.3532741    -0.4795290
H          -0.7092738    -0.5029861    -0.2829247
H          -0.5065949    -2.2608519    -0.0707344
H           0.0759849    -1.4711665    -1.5575193
16
158_C4H9NO2_0-2-3-4 (15,) energy =    -363.0387269
N           1.2816705    -1.0554387     0.0512347
H           1.3892056    -0.8488912     1.0352437
C           2.4253839    -1.2199804    -0.6610060
C           3.7076197    -0.9124882     0.1138756
O           3.4601652    -0.8481498     1.5062146
C           4.6015197    -0.4796767     2.2557910
H           4.3034910    -0.4582403     3.3069617
H           4.9716399     0.5158893     1.9651365
H           5.4180435    -1.2066746     2.1286468
H           4.1089486     0.0434022    -0.2617059
H           4.4411298    -1.6950833    -0.1289331
O           2.4820561    -1.5356305    -1.8439085
C          -0.0318896    -1.3146794    -0.5048856
H          -0.6923075    -0.4509887    -0.3662001
H          -0.4994434    -2.1928434    -0.0419654
H           0.0945982    -1.5023319    -1.5723319
16
158_C4H9NO2_0-2-3-4 (30,) energy =    -363.0378086
N           1.2756479    -0.9748865     0.0240728
H           1.3850607    -0.7244984     0.9980809
C           2.4204906    -1.2841513    -0.6417507
C           3.6981413    -0.9050996     0.1091487
O           3.4851290    -0.9672619     1.5086805
C           4.6000835    -0.5214632     2.2570712
H           4.3327622    -0.6051703     3.3134071
H           4.8477074     0.5271386     2.0287954
H           5.4887637    -1.1404423     2.0616235
H           3.9946207     0.1119683    -0.1996389
H           4.4906333    -1.5963329    -0.2088327
O           2.4725694    -1.7387155    -1.7780311
C          -0.0404447    -1.2902904    -0.4985490
H          -0.6967355    -0.4139210    -0.4525056
H          -0.5109410    -2.1119342     0.0564331
H           0.0830923    -1.5922183    -1.5397318
16
158_C4H9NO2_0-2-3-4 (45,) energy =    -363.0360826
N           1.4394029    -0.7507995    -0.0450298
H           1.4618072    -0.0410450     0.6759555
C           2.6454069    -1.1329397    -0.5549882
C           3.7949326    -0.1921788    -0.1543236
O           3.7783507     0.1615060     1.2195121
C           4.1703138    -0.9048033     2.0698232
H           4.1437264    -0.5195599     3.0921244
H           5.1908325    -1.2435458     1.8377065
H           3.4903292    -1.7659454     1.9920274
H           3.7046967     0.7450453    -0.7145551
H           4.7358199    -0.6829960    -0.4366482
O           2.8092210    -2.0695185    -1.3267023
C           0.2207126    -1.5082608    -0.2618856
H          -0.5954078    -0.8466541    -0.5724254
H          -0.0901687    -2.0515051     0.6398512
H           0.4211901    -2.2290911    -1.0560981
16
158_C4H9NO2_0-2-3-4 (60,) energy =    -363.0338814
N           1.4086741    -0.6674171    -0.1559537
H           1.3649635     0.1292011     0.4665519
C           2.6573474    -1.1208081    -0.4765776
C           3.7760437    -0.1282296    -0.1126446
O           3.8162252     0.1646488     1.2750392
C           4.2477721    -0.9345777     2.0619420
H           4.2667829    -0.5900290     3.0988102
H           5.2570664    -1.2610608     1.7698315
H           3.5681384    -1.7952382     1.9805194
H           3.6118955     0.8280088    -0.6211001
H           4.7221040    -0.5638185    -0.4613821
O           2.8785814    -2.1803574    -1.0491486
C           0.2210128    -1.4884395    -0.3139157
H          -0.6067675    -0.8889931    -0.7067412
H          -0.0932401    -1.9475517     0.6328450
H           0.4619252    -2.2812763    -1.0234974
16
158_C4H9NO2_0-2-3-4 (75,) energy =    -363.0322927
N           1.3518763    -0.6480169    -0.2588868
H           1.2403575     0.2557228     0.1805071
C           2.6237846    -1.1329560    -0.3803486
C           3.7179762    -0.1060151    -0.0432711
O           3.8292000     0.1085705     1.3544796
C           4.3864444    -0.9979979     2.0492168
H           4.4472522    -0.7061880     3.1006388
H           5.3960670    -1.2312214     1.6783946
H           3.7682874    -1.9012323     1.9574269
H           3.4871793     0.8712644    -0.4817349
H           4.6584469    -0.4802699    -0.4704042
O           2.8860477    -2.2799440    -0.7237518
C           0.1820090    -1.4996353    -0.3849167
H          -0.5958882    -0.9968073    -0.9688776
H          -0.2322315    -1.7758860     0.5936787
H           0.4931098    -2.4083648    -0.9020069
16
158_C4H9NO2_0-2-3-4 (90,) energy =    -363.0318075
N           1.2957929    -0.6406660    -0.3367354
H           1.1536716     0.3297551    -0.0945256
C           2.5639973    -1.1416889    -0.2584014
C           3.6484688    -0.0999463     0.0531355
O           3.8496807     0.0366703     1.4496218
C           4.5395051    -1.0588417     2.0377769
H           4.6632588    -0.8114713     3.0952096
H           5.5310683    -1.1927313     1.5785773
H           3.9832331    -1.9988918     1.9413136
H           3.3671257     0.8948404    -0.3111158
H           4.5695778    -0.4182021    -0.4557548
O           2.8314021    -2.3318752    -0.3907818
C           0.1293012    -1.4947459    -0.4752196
H          -0.5562859    -1.0896911    -1.2269354
H          -0.4100192    -1.6053066     0.4744588
H           0.4801886    -2.4768725    -0.7950465
16
158_C4H9NO2_0-2-3-4 (105,) energy =    -363.0316812
N           1.2494607    -0.6325181    -0.3811170
H           1.1097433     0.3649192    -0.3098477
C           2.4885232    -1.1370889    -0.1090858
C           3.5751313    -0.0874675     0.1624403
O           3.8900428    -0.0059379     1.5395814
C           4.6889553    -1.0804484     2.0203486
H           4.9144063    -0.8485685     3.0646152
H           5.6312795    -1.1527190     1.4549336
H           4.1681251    -2.0415469     1.9555722
H           3.2518950     0.9171276    -0.1347287
H           4.4595094    -0.3601665    -0.4336193
O           2.7322280    -2.3393087    -0.0643627
C           0.0870378    -1.4818725    -0.5722593
H          -0.4793435    -1.1667208    -1.4550636
H          -0.5770600    -1.4634509     0.3012567
H           0.4483966    -2.5010589    -0.7162327
16
158_C4H9NO2_0-2-3-4 (120,) energy =    -363.0315479
N           1.2148767    -0.6483529    -0.4161611
H           1.1042317     0.3528561    -0.4827583
C           2.4022090    -1.1458249     0.0392671
C           3.5012799    -0.0975253     0.2669546
O           3.9423861    -0.0643225     1.6068507
C           4.8296762    -1.1181093     1.9636331
H           5.1575532    -0.9064498     2.9849214
H           5.7090323    -1.1313014     1.2998369
H           4.3402730    -2.0955501     1.9216858
H           3.1455408     0.9141575     0.0374773
H           4.3319296    -0.3308253    -0.4194079
O           2.5974770    -2.3400396     0.2421032
C           0.0587673    -1.4910595    -0.6661655
H          -0.3576540    -1.2938452    -1.6600984
H          -0.7252358    -1.3334934     0.0849783
H           0.3946413    -2.5275146    -0.6117112
16
158_C4H9NO2_0-2-3-4 (135,) energy =    -363.0314832
N           1.1985203    -0.6533283    -0.4516527
H           1.1343367     0.3349273    -0.6480689
C           2.3096206    -1.1232973     0.1897420
C           3.4283830    -0.0851994     0.3742298
O           3.9824285    -0.0963781     1.6668045
C           4.9260709    -1.1358566     1.8998110
H           5.3372112    -0.9558287     2.8967432
H           5.7450701    -1.0930003     1.1632881
H           4.4585831    -2.1233344     1.8600496
H           3.0509627     0.9317895     0.2098966
H           4.1980398    -0.2834913    -0.3920494
O           2.4316395    -2.2865627     0.5564294
C           0.0507334    -1.4932756    -0.7460117
H          -0.2296056    -1.4132601    -1.8022190
H          -0.8146515    -1.2242201    -0.1277882
H           0.3357261    -2.5223085    -0.5227886
16
158_C4H9NO2_0-2-3-4 (150,) energy =    -363.0314826
N           1.2190507    -0.6663047    -0.4830076
H           1.2158024     0.2883805    -0.8127151
C           2.2384839    -1.0776731     0.3300165
C           3.3726106    -0.0479100     0.4825541
O           4.0280222    -0.1149308     1.7202054
C           4.9866078    -1.1611060     1.8249527
H           5.4729486    -1.0340774     2.7957080
H           5.7481294    -1.0753574     1.0322717
H           4.5150784    -2.1459919     1.7713587
H           2.9733641     0.9707518     0.3960664
H           4.0783552    -0.1969037    -0.3547395
O           2.2763947    -2.1839371     0.8532192
C           0.0814760    -1.5111580    -0.8020772
H          -0.0672107    -1.5737801    -1.8860255
H          -0.8401828    -1.1379173    -0.3388060
H           0.2952697    -2.5055325    -0.4078057
16
158_C4H9NO2_0-2-3-4 (165,) energy =    -363.0314803
N           1.2638633    -0.6920905    -0.5100664
H           1.3369616     0.2043591    -0.9706799
C           2.1852914    -1.0163805     0.4476197
C           3.3226798     0.0158502     0.5844165
O           4.0730355    -0.1215885     1.7568123
C           5.0084459    -1.1921136     1.7305794
H           5.5686559    -1.1330449     2.6672208
H           5.7114589    -1.0790936     0.8886942
H           4.5076996    -2.1620788     1.6619542
H           2.8963309     1.0271841     0.6017496
H           3.9614995    -0.0547206    -0.3154065
O           2.1364849    -2.0440776     1.1090406
C           0.1280081    -1.5402498    -0.8264170
H           0.0906429    -1.7620705    -1.8991162
H          -0.8190833    -1.0740090    -0.5279814
H           0.2534634    -2.4700713    -0.2699902
16
158_C4H9NO2_0-2-3-4 (180,) energy =    -363.0314349
N           1.3319653    -0.7368803    -0.5349705
H           1.5014449     0.0764981    -1.1105630
C           2.1435316    -0.9585898     0.5441111
C           3.2744900     0.0823251     0.6866044
O           4.1089324    -0.1355042     1.7858878
C           4.9940444    -1.2356456     1.6313424
H           5.6260162    -1.2506461     2.5227447
H           5.6347772    -1.1056387     0.7434474
H           4.4499389    -2.1825114     1.5548900
H           2.8232462     1.0726292     0.8290882
H           3.8481186     0.1157258    -0.2585631
O           1.9973363    -1.8925053     1.3191035
C           0.1834984    -1.5721444    -0.8398633
H           0.2358152    -1.9527661    -1.8663806
H          -0.7588399    -1.0249309    -0.7129013
H           0.2009899    -2.4119774    -0.1439285
