16
158_C4H9NO2_2-3-4-5 (-165,) energy =    -363.0386638
N           0.9241392    -1.2041622     0.1560019
H           1.0768838    -0.9867353     1.1315320
C           2.0270696    -1.2544163    -0.6319595
C           3.3400070    -0.9283767     0.0826396
O           3.1456593    -0.7630153     1.4756336
C           4.2371209    -0.1398760     2.1247656
H           3.9724299    -0.0461181     3.1809481
H           4.4332496     0.8613729     1.7109657
H           5.1557056    -0.7399203     2.0383894
H           3.7393601    -0.0083011    -0.3727932
H           4.0547587    -1.7366950    -0.1315354
O           2.0310342    -1.5158645    -1.8295838
C          -0.4088505    -1.4850362    -0.3391625
H          -1.0707129    -0.6201326    -0.2102080
H          -0.8510553    -2.3458040     0.1768935
H          -0.3223185    -1.7123986    -1.4029365
16
158_C4H9NO2_2-3-4-5 (-150,) energy =    -363.0378676
N           0.9450085    -1.2323097     0.1449348
H           1.1241450    -1.0693474     1.1267387
C           2.0333238    -1.2883046    -0.6621464
C           3.3688935    -1.0520704     0.0488536
O           3.2063222    -0.9445426     1.4540344
C           4.1622304    -0.1099088     2.0814282
H           3.9132470    -0.0822418     3.1453353
H           4.1320872     0.9133574     1.6767741
H           5.1834831    -0.5025356     1.9661088
H           3.7944100    -0.1290362    -0.3725341
H           4.0477394    -1.8758348    -0.2127350
O           2.0110275    -1.4905302    -1.8710466
C          -0.4058614    -1.4306932    -0.3408837
H          -1.0289379    -0.5478869    -0.1532888
H          -0.8758324    -2.2997797     0.1351888
H          -0.3453985    -1.6026515    -1.4168498
16
158_C4H9NO2_2-3-4-5 (-135,) energy =    -363.0370162
N           0.9906362    -1.2374081     0.1756732
H           1.1961855    -1.1589966     1.1628433
C           2.0625446    -1.2848082    -0.6534373
C           3.4184111    -1.1521129     0.0493346
O           3.2911513    -1.0755673     1.4630495
C           4.0842814    -0.0705479     2.0702015
H           3.8600023    -0.0915899     3.1398660
H           3.8484527     0.9284107     1.6733004
H           5.1585790    -0.2600505     1.9306313
H           3.9029644    -0.2553536    -0.3599060
H           4.0335884    -2.0159729    -0.2349934
O           2.0137644    -1.4109779    -1.8719029
C          -0.3740861    -1.3699896    -0.2933229
H          -0.9696033    -0.4852815    -0.0377383
H          -0.8581324    -2.2552514     0.1367061
H          -0.3387900    -1.4749133    -1.3790597
16
158_C4H9NO2_2-3-4-5 (-120,) energy =    -363.0367421
N           1.0277012    -1.2512206     0.1903846
H           1.2502962    -1.2601248     1.1770311
C           2.0861839    -1.2752162    -0.6574891
C           3.4547060    -1.2568491     0.0355486
O           3.3629302    -1.1853458     1.4536622
C           3.9823446    -0.0446562     2.0249552
H           3.8168165    -0.1010240     3.1040233
H           3.5470870     0.8916487     1.6446276
H           5.0648797    -0.0340011     1.8331286
H           4.0210596    -0.4147934    -0.3807327
H           3.9818440    -2.1770502    -0.2461749
O           2.0164564    -1.3142942    -1.8807836
C          -0.3471463    -1.3099598    -0.2640688
H          -0.9151807    -0.4359847     0.0764556
H          -0.8478374    -2.2166255     0.0969763
H          -0.3310261    -1.3228531    -1.3552842
16
158_C4H9NO2_2-3-4-5 (-105,) energy =    -363.0372875
N           1.0551469    -1.2824043     0.2164516
H           1.2849740    -1.3748631     1.1971597
C           2.1045342    -1.2822107    -0.6446907
C           3.4777273    -1.3794347     0.0342391
O           3.4239517    -1.2996379     1.4529049
C           3.8568195    -0.0530569     1.9761913
H           3.7610173    -0.1150361     3.0632695
H           3.2420702     0.7824492     1.6092949
H           4.9080441     0.1438362     1.7218932
H           4.1249282    -0.6071289    -0.3983690
H           3.9055082    -2.3533350    -0.2334796
O           2.0192124    -1.2332011    -1.8664097
C          -0.3254126    -1.2590289    -0.2241106
H          -0.8658988    -0.4118281     0.2141624
H          -0.8472170    -2.1857579     0.0448887
H          -0.3202428    -1.1578479    -1.3108132
16
158_C4H9NO2_2-3-4-5 (-90,) energy =    -363.0380657
N           1.0870502    -1.2871402     0.2369444
H           1.3130224    -1.4743886     1.2049751
C           2.1348004    -1.2477528    -0.6277546
C           3.5032836    -1.4603836     0.0366755
O           3.4885826    -1.3560797     1.4524059
C           3.7259453    -0.0362050     1.9207689
H           3.6896276    -0.0757667     3.0123967
H           2.9642329     0.6708145     1.5605200
H           4.7168534     0.3234416     1.6080170
H           4.2151010    -0.7616251    -0.4211411
H           3.8340445    -2.4769916    -0.2059609
O           2.0442490    -1.0947203    -1.8401327
C          -0.2937372    -1.1880070    -0.1936225
H          -0.8123943    -0.3747699     0.3272364
H          -0.8376180    -2.1237044    -0.0142647
H          -0.2875633    -0.9820772    -1.2653698
16
158_C4H9NO2_2-3-4-5 (-75,) energy =    -363.0377939
N           1.1584465    -1.3071187     0.2566525
H           1.3633152    -1.5721936     1.2111299
C           2.2219603    -1.1976158    -0.5853958
C           3.5735475    -1.5128139     0.0753473
O           3.6006078    -1.3465247     1.4830895
C           3.6398611     0.0163363     1.8840967
H           3.6662311     0.0226389     2.9766118
H           2.7569861     0.5729938     1.5402009
H           4.5420171     0.5153863     1.5004589
H           4.3350098    -0.8978597    -0.4236523
H           3.8108714    -2.5653153    -0.1164905
O           2.1479958    -0.9253566    -1.7773123
C          -0.2141392    -1.1310892    -0.1769928
H          -0.7181459    -0.3534278     0.4086289
H          -0.7844344    -2.0638308    -0.0874609
H          -0.1884105    -0.8310728    -1.2259247
16
158_C4H9NO2_2-3-4-5 (-60,) energy =    -363.0355460
N           1.2129988    -1.3585341     0.2439575
H           1.3939285    -1.6989464     1.1791594
C           2.2944833    -1.1689662    -0.5639197
C           3.6300473    -1.5758359     0.0810847
O           3.7365167    -1.3283013     1.4729233
C           3.5932078     0.0402275     1.8279504
H           3.7318834     0.0959792     2.9105245
H           2.6029504     0.4363373     1.5688494
H           4.3584741     0.6606747     1.3372307
H           4.4180673    -1.0543934    -0.4808712
H           3.7736570    -2.6544123    -0.0471588
O           2.2378531    -0.7693639    -1.7196810
C          -0.1493202    -1.0972925    -0.1809035
H          -0.6307314    -0.3491332     0.4599628
H          -0.7527711    -2.0128941    -0.1670064
H          -0.1035354    -0.7177277    -1.2029215
16
158_C4H9NO2_2-3-4-5 (-45,) energy =    -363.0315569
N           1.2330794    -1.4308038     0.2302313
H           1.3837794    -1.8537839     1.1364501
C           2.3355961    -1.1694033    -0.5317938
C           3.6548350    -1.6566353     0.0919847
O           3.8719017    -1.3132117     1.4527902
C           3.5716106     0.0320843     1.7952474
H           3.8668890     0.1537133     2.8404862
H           2.5042812     0.2633496     1.6931646
H           4.1433837     0.7434004     1.1796429
H           4.4505809    -1.2474188    -0.5465109
H           3.7019094    -2.7504395     0.0462496
O           2.3000995    -0.6434494    -1.6361538
C          -0.1148618    -1.0799596    -0.1780344
H          -0.5718421    -0.3656127     0.5173382
H          -0.7535574    -1.9689709    -0.2395164
H          -0.0451669    -0.6224414    -1.1660446
16
158_C4H9NO2_2-3-4-5 (-30,) energy =    -363.0272112
N           1.2157777    -1.4858960     0.2042679
H           1.3259694    -2.0140549     1.0591644
C           2.3446732    -1.1496389    -0.4896054
C           3.6468963    -1.6950444     0.1220821
O           3.9842856    -1.2245980     1.4231648
C           3.5488697     0.0832255     1.7604672
H           3.9807207     0.2998514     2.7409496
H           2.4560502     0.1582768     1.8276562
H           3.9062211     0.8354697     1.0413626
H           4.4350089    -1.4268790    -0.5940859
H           3.6001894    -2.7880564     0.1956320
O           2.3386918    -0.4930589    -1.5223047
C          -0.1146967    -1.0634410    -0.1957800
H          -0.5902774    -0.4528938     0.5809170
H          -0.7573909    -1.9257711    -0.4091036
H          -0.0055720    -0.4678255    -1.1032014
16
158_C4H9NO2_2-3-4-5 (-15,) energy =    -363.0244800
N           1.1162327    -1.6906805     0.0737851
H           1.1476422    -2.5013471     0.6747843
C           2.2935601    -1.0942419    -0.2800048
C           3.5562552    -1.7804554     0.2641128
O           4.1790374    -1.1502616     1.3770075
C           3.8052876     0.1851131     1.6820975
H           4.4111647     0.4659678     2.5475819
H           2.7428337     0.2660792     1.9540969
H           4.0039128     0.8762791     0.8542439
H           4.2597032    -1.8065255    -0.5798571
H           3.3492305    -2.8164906     0.5629429
O           2.3578483    -0.0880965    -0.9767219
C          -0.1786765    -1.1853516    -0.3475138
H          -0.7887803    -0.8895106     0.5140982
H          -0.7267946    -1.9368765    -0.9276329
H           0.0037623    -0.3108674    -0.9735754
16
158_C4H9NO2_2-3-4-5 (0,) energy =    -363.0236262
N           1.5899731    -0.9851795    -0.2791405
H           1.3325091    -0.0125787    -0.1977483
C           2.9113701    -1.3226826    -0.1937476
C           3.8735595    -0.1305781    -0.0890512
O           4.6558614    -0.0408269     1.0919588
C           4.5062821    -1.0400415     2.0898431
H           5.1582898    -0.7281559     2.9101012
H           4.8041085    -2.0324925     1.7359264
H           3.4736743    -1.0994236     2.4664948
H           3.3283815     0.8187024    -0.2002488
H           4.5528749    -0.2216918    -0.9478683
O           3.3144584    -2.4796912    -0.2277537
C           0.5370498    -1.9743155    -0.4291440
H          -0.0640215    -1.7758265    -1.3238664
H          -0.1241313    -1.9886711     0.4456351
H           1.0191159    -2.9480362    -0.5263851
16
158_C4H9NO2_2-3-4-5 (15,) energy =    -363.0244832
N           1.5972051    -0.9864584    -0.2540920
H           1.3501339    -0.0174801    -0.1144868
C           2.9202897    -1.3279883    -0.2606998
C           3.8942174    -0.1472218    -0.1255103
O           4.4923187     0.0253582     1.1536494
C           4.4126413    -1.0500165     2.0771721
H           4.9410576    -0.7060600     2.9702066
H           4.8857716    -1.9642401     1.6991255
H           3.3738048    -1.2852702     2.3508628
H           3.4051287     0.8031659    -0.3764759
H           4.6792757    -0.3304692    -0.8724529
O           3.3189905    -2.4817306    -0.3689375
C           0.5321400    -1.9684026    -0.3597741
H          -0.1337812    -1.7362206    -1.1986101
H          -0.0616752    -2.0149736     0.5611203
H           1.0018763    -2.9382100    -0.5294185
16
158_C4H9NO2_2-3-4-5 (30,) energy =    -363.0272128
N           1.7137356    -1.0486561    -0.0208529
H           1.5812686    -0.1749769     0.4701572
C           2.9717670    -1.3486167    -0.4639548
C           4.0137879    -0.2487645    -0.1957771
O           4.2783571     0.0573164     1.1696285
C           4.1264356    -1.0024885     2.1010299
H           4.4648412    -0.6079300     3.0625767
H           4.7438333    -1.8745257     1.8382739
H           3.0838279    -1.3312482     2.1975075
H           3.6986538     0.6915103    -0.6635632
H           4.9307260    -0.5948262    -0.6911487
O           3.2589791    -2.3856229    -1.0468088
C           0.5874428    -1.9541618    -0.1629314
H          -0.2131104    -1.5002936    -0.7588897
H           0.1800970    -2.2421405     0.8135332
H           0.9518817    -2.8453080    -0.6758772
16
158_C4H9NO2_2-3-4-5 (45,) energy =    -363.0315570
N           1.7398749    -1.0778425     0.0291582
H           1.6644788    -0.2574204     0.6157431
C           2.9636540    -1.3537278    -0.5101151
C           4.0342007    -0.2923409    -0.2030624
O           4.1454202     0.1149378     1.1528987
C           4.1325546    -0.9376510     2.1063962
H           4.3077872    -0.4703073     3.0787076
H           4.9336751    -1.6676853     1.9137422
H           3.1743812    -1.4709740     2.1305009
H           3.8243419     0.6185575    -0.7748412
H           4.9817365    -0.7180142    -0.5626729
O           3.2008639    -2.3225220    -1.2191026
C           0.5809047    -1.9319764    -0.1551417
H          -0.2397678    -1.3864159    -0.6356046
H           0.2235910    -2.3359089     0.7997942
H           0.8861373    -2.7571357    -0.8003445
16
158_C4H9NO2_2-3-4-5 (60,) energy =    -363.0355452
N           1.7366286    -1.1370235     0.0747810
H           1.7061622    -0.3642361     0.7267712
C           2.9293296    -1.3802390    -0.5388309
C           4.0319989    -0.3721141    -0.1739349
O           4.0093016     0.1004693     1.1624632
C           4.1507445    -0.9226975     2.1384481
H           4.1540090    -0.4249918     3.1113728
H           5.0999516    -1.4651416     2.0113515
H           3.3268400    -1.6470819     2.1050524
H           3.9299657     0.5135491    -0.8107914
H           4.9888200    -0.8586348    -0.4115418
O           3.1230093    -2.2728837    -1.3539046
C           0.5445745    -1.9274655    -0.1678553
H          -0.2599711    -1.3134398    -0.5900077
H           0.1817030    -2.3969215     0.7542573
H           0.8113846    -2.7055494    -0.8848490
16
158_C4H9NO2_2-3-4-5 (75,) energy =    -363.0377938
N           1.0935737    -0.9463054     0.2482742
H           1.1563634    -0.2463113     0.9758266
C           2.1826598    -1.0871975    -0.5554805
C           3.3356094    -0.1296649    -0.2143776
O           3.3376743     0.3467149     1.1213256
C           3.7714028    -0.6269324     2.0612371
H           3.7464074    -0.1493614     3.0439183
H           4.7999516    -0.9528464     1.8467617
H           3.1177510    -1.5102723     2.0714517
H           3.2489837     0.7535196    -0.8572082
H           4.2741871    -0.6417949    -0.4667806
O           2.2592395    -1.8578275    -1.5044529
C          -0.1333990    -1.6946038     0.0544826
H          -0.9633878    -1.0361902    -0.2301813
H          -0.4126079    -2.2387684     0.9641440
H           0.0440953    -2.4084803    -0.7516278
16
158_C4H9NO2_2-3-4-5 (90,) energy =    -363.0380657
N           1.0560523    -1.0067272     0.2480494
H           1.1515803    -0.3647587     1.0239109
C           2.1179667    -1.0913768    -0.5958766
C           3.3100089    -0.2105727    -0.1925874
O           3.2381171     0.3012693     1.1296212
C           3.8388740    -0.5502615     2.0948985
H           3.7228947    -0.0610127     3.0653211
H           4.9101052    -0.6891262     1.8893769
H           3.3554347    -1.5376614     2.1293673
H           3.3274903     0.6518209    -0.8691508
H           4.2295162    -0.7849716    -0.3632276
O           2.1559428    -1.7673211    -1.6172166
C          -0.1974132    -1.6945549     0.0082365
H          -1.0120183    -0.9864868    -0.1882070
H          -0.4745599    -2.3201631     0.8646408
H          -0.0595724    -2.3278271    -0.8698596
16
158_C4H9NO2_2-3-4-5 (105,) energy =    -363.0372876
N           1.0290072    -1.0295696     0.2341615
H           1.1563639    -0.4611463     1.0611047
C           2.0799845    -1.0781195    -0.6236587
C           3.3108898    -0.2878229    -0.1583640
O           3.1942315     0.2341439     1.1591132
C           3.9547999    -0.4721882     2.1274599
H           3.7756025     0.0159527     3.0888955
H           5.0296557    -0.4289137     1.9008867
H           3.6509761    -1.5272458     2.1990506
H           3.4354611     0.5570140    -0.8466885
H           4.1899413    -0.9338635    -0.2698847
O           2.0914171    -1.6671255    -1.6984857
C          -0.2471499    -1.6562970    -0.0473432
H          -1.0430027    -0.9101186    -0.1629501
H          -0.5307627    -2.3512320     0.7517314
H          -0.1409825    -2.2088314    -0.9825552
16
158_C4H9NO2_2-3-4-5 (120,) energy =    -363.0367418
N           0.9842293    -1.0965877     0.2019476
H           1.1281289    -0.5956213     1.0688185
C           2.0317861    -1.1074905    -0.6597024
C           3.2894885    -0.4014186    -0.1370170
O           3.1330833     0.1213783     1.1771104
C           4.0394906    -0.4079246     2.1308740
H           3.7943840     0.0532590     3.0911855
H           5.0811327    -0.1643714     1.8769953
H           3.9448146    -1.5002215     2.2239859
H           3.5194514     0.4199784    -0.8271760
H           4.1166707    -1.1193781    -0.1957356
O           2.0307032    -1.6178529    -1.7743295
C          -0.3075232    -1.6679213    -0.1221970
H          -1.0886710    -0.8983575    -0.1501346
H          -0.5957562    -2.4344359     0.6069800
H          -0.2244599    -2.1262360    -1.1092276
16
158_C4H9NO2_2-3-4-5 (135,) energy =    -363.0370162
N           0.9391993    -1.1346596     0.1704157
H           1.0935434    -0.7130905     1.0767218
C           1.9922923    -1.1140914    -0.6835545
C           3.2714456    -0.5001045    -0.1034338
O           3.0831566     0.0004113     1.2135779
C           4.1131164    -0.3424923     2.1242227
H           3.8251771     0.0633779     3.0975105
H           5.0784412     0.0949787     1.8304563
H           4.2325241    -1.4330400     2.2108455
H           3.5980411     0.3028974    -0.7774089
H           4.0409630    -1.2833840    -0.1291057
O           1.9854002    -1.5449102    -1.8312870
C          -0.3636942    -1.6503613    -0.1989845
H          -1.1281890    -0.8647097    -0.1620827
H          -0.6688499    -2.4685736     0.4642845
H          -0.2893831    -2.0273198    -1.2204833
16
158_C4H9NO2_2-3-4-5 (150,) energy =    -363.0378673
N           0.9113687    -1.1567256     0.1744862
H           1.0683508    -0.8176913     1.1141782
C           1.9759956    -1.1162428    -0.6645032
C           3.2690458    -0.5949000    -0.0310608
O           3.0579356    -0.1326283     1.2933309
C           4.1853837    -0.2725668     2.1378484
H           3.8896588     0.0844779     3.1276498
H           5.0363301     0.3281058     1.7835849
H           4.5050401    -1.3231995     2.2135026
H           3.6690109     0.2018703    -0.6737866
H           3.9902893    -1.4256382    -0.0500714
O           1.9692887    -1.4714924    -1.8377848
C          -0.3984584    -1.6189521    -0.2388394
H          -1.1469274    -0.8217827    -0.1536429
H          -0.7259163    -2.4740171     0.3647125
H          -0.3230284    -1.9267927    -1.2830955
16
158_C4H9NO2_2-3-4-5 (165,) energy =    -363.0386644
N           0.8880676    -1.1923680     0.1706414
H           1.0371030    -0.9101105     1.1300305
C           1.9666841    -1.1412727    -0.6502658
C           3.2662215    -0.7002907     0.0261176
O           3.0447586    -0.3051463     1.3678738
C           4.2331668    -0.2134357     2.1295858
H           3.9442094     0.0762436     3.1429761
H           4.9175133     0.5461316     1.7221037
H           4.7630624    -1.1778195     2.1664681
H           3.6999565     0.1172173    -0.5685892
H           3.9653253    -1.5500146    -0.0255015
O           1.9651318    -1.4316155    -1.8412146
C          -0.4300987    -1.5832807    -0.2881234
H          -1.1517518    -0.7660966    -0.1681812
H          -0.7969217    -2.4591927     0.2603094
H          -0.3477783    -1.8336952    -1.3470436
16
158_C4H9NO2_2-3-4-5 (180,) energy =    -363.0389573
N           0.9234412    -1.1957884     0.1625444
H           1.0591612    -0.9492440     1.1335772
C           2.0266702    -1.1897976    -0.6267687
C           3.3244271    -0.8057481     0.0854538
O           3.0997808    -0.5250884     1.4542170
C           4.2782332    -0.1653908     2.1480468
H           3.9944473     0.0330344     3.1845404
H           4.7369839     0.7396443     1.7208617
H           5.0217807    -0.9770365     2.1273028
H           3.7479692     0.0663339    -0.4366996
H           4.0340715    -1.6385004    -0.0405418
O           2.0435315    -1.4622087    -1.8218453
C          -0.3951525    -1.5361453    -0.3340638
H          -1.0947755    -0.7011894    -0.2072531
H          -0.7995099    -2.4149774     0.1825914
H          -0.2969388    -1.7611117    -1.3973019
