22
448_C9H9N3O_12-6-7-8 (-165,) energy =    -587.8044962
C           6.2334599     0.5144581    -0.3081006
H           7.1977223     0.9757971    -0.4984000
C           5.7573272     0.3584121     0.9956034
H           6.3250276     0.7144675     1.8522823
N           4.6088860    -0.2583634     1.2634024
C           3.8494361    -0.7095716     0.2610615
C           4.1754676    -0.4946875    -1.0981903
O           3.4593943    -0.7612116    -2.2160720
C           2.0590860    -1.0532549    -2.1973023
H           1.7362375    -0.9336570    -3.2336764
H           1.5151063    -0.3430370    -1.5642488
H           1.8759541    -2.0704197    -1.8510766
C           5.4308240     0.0842358    -1.3524052
H           5.7207187     0.2158261    -2.3901942
C           1.0311672    -2.1659912     1.9289558
H           0.2350254    -2.2402082     2.6553873
C           1.8683199    -1.0934041     1.7150226
H           1.9560108    -0.1324221     2.1984269
N           2.7016224    -1.4385140     0.6898201
N           2.4714793    -2.7087215     0.2493798
C           1.4541136    -3.1371572     0.9911900
H           1.0631404    -4.1334904     0.8285668
22
448_C9H9N3O_12-6-7-8 (-150,) energy =    -587.8057030
C           6.2055395     0.5206444    -0.3231612
H           7.1632198     0.9937989    -0.5171512
C           5.6952007     0.4406184     0.9732573
H           6.2297197     0.8667723     1.8192796
N           4.5535611    -0.1859719     1.2533242
C           3.8366732    -0.7232530     0.2632024
C           4.1952041    -0.5882640    -1.0985418
O           3.5075084    -0.9741393    -2.2014420
C           2.0759722    -0.9898416    -2.2197488
H           1.8028959    -0.9005630    -3.2737483
H           1.6665084    -0.1362033    -1.6668158
H           1.6917980    -1.9209326    -1.8029982
C           5.4402675     0.0037536    -1.3587563
H           5.7547237     0.0755914    -2.3952805
C           1.0627423    -2.2144032     1.9678455
H           0.2936510    -2.3110339     2.7202819
C           1.9114746    -1.1474738     1.7765252
H           2.0390616    -0.2148425     2.3037600
N           2.6986629    -1.4556356     0.7027694
N           2.4235250    -2.6956104     0.2053730
C           1.4290581    -3.1439205     0.9653518
H           1.0124338    -4.1235045     0.7682420
22
448_C9H9N3O_12-6-7-8 (-135,) energy =    -587.8065617
C           6.1582597     0.5497998    -0.3365155
H           7.0983744     1.0522626    -0.5418993
C           5.6389028     0.5005448     0.9562430
H           6.1509897     0.9775468     1.7890111
N           4.5145528    -0.1510488     1.2541805
C           3.8267232    -0.7536120     0.2818901
C           4.2012534    -0.6708931    -1.0805344
O           3.5348144    -1.1625191    -2.1581937
C           2.1246813    -0.9370311    -2.2792861
H           1.9096968    -1.0124557    -3.3477102
H           1.8593576     0.0676196    -1.9276649
H           1.5608496    -1.6907429    -1.7284054
C           5.4194389    -0.0377292    -1.3562103
H           5.7401624     0.0019613    -2.3925714
C           1.0983476    -2.2648888     2.0370250
H           0.3664046    -2.3846358     2.8224581
C           1.9825810    -1.2234058     1.8751229
H           2.1813642    -0.3380326     2.4578468
N           2.6998749    -1.4868503     0.7398037
N           2.3382249    -2.6713477     0.1693946
C           1.3673147    -3.1323724     0.9505793
H           0.8960498    -4.0761899     0.7074663
22
448_C9H9N3O_12-6-7-8 (-120,) energy =    -587.8071514
C           6.0942759     0.5995854    -0.3505980
H           7.0100064     1.1395232    -0.5699328
C           5.5834754     0.5477234     0.9437815
H           6.0800653     1.0568108     1.7670499
N           4.4842069    -0.1386645     1.2589760
C           3.8143566    -0.7868853     0.3039284
C           4.1955240    -0.7321876    -1.0597407
O           3.5609508    -1.3261583    -2.1103824
C           2.2229837    -0.9056432    -2.4017803
H           1.9879445    -1.3381962    -3.3764938
H           2.1681892     0.1887320    -2.4670189
H           1.5175538    -1.2819729    -1.6583820
C           5.3778666    -0.0461843    -1.3531372
H           5.6981826    -0.0246694    -2.3902578
C           1.1560027    -2.3400978     2.1267206
H           0.4849170    -2.5035355     2.9573403
C           2.1042927    -1.3520783     2.0069280
H           2.4204933    -0.5589048     2.6645348
N           2.7044261    -1.5265936     0.7866431
N           2.1959741    -2.5992755     0.1165345
C           1.2608914    -3.0830589     0.9251705
H           0.6943584    -3.9526542     0.6172257
22
448_C9H9N3O_12-6-7-8 (-105,) energy =    -587.8077596
C           5.9764664     0.6911921    -0.3489343
H           6.8661308     1.2664480    -0.5846401
C           5.4723163     0.6447192     0.9473243
H           5.9514567     1.1899134     1.7579027
N           4.3954705    -0.0676501     1.2804717
C           3.7470804    -0.7682475     0.3470814
C           4.1509738    -0.7647308    -1.0124199
O           3.5855424    -1.4974014    -2.0170151
C           2.3784856    -0.9744802    -2.5854888
H           2.1225833    -1.6494591    -3.4047115
H           2.5470136     0.0355781    -2.9828187
H           1.5697280    -0.9719837    -1.8517622
C           5.2965586    -0.0289953    -1.3265866
H           5.6328638    -0.0479030    -2.3589259
C           1.2592620    -2.4773743     2.2686472
H           0.7390237    -2.7902214     3.1622131
C           2.3389985    -1.6314897     2.1913156
H           2.9083502    -1.1018082     2.9365939
N           2.6637093    -1.5250032     0.8613797
N           1.8360448    -2.2702095     0.0767637
C           0.9912933    -2.8398181     0.9257763
H           0.2167081    -3.4923791     0.5434905
22
448_C9H9N3O_12-6-7-8 (-90,) energy =    -587.8086548
C           5.8854020     0.7991815    -0.3750819
H           6.7351771     1.4206711    -0.6394383
C           5.4293680     0.7313459     0.9387251
H           5.9147797     1.2972908     1.7310840
N           4.3859640    -0.0142964     1.3096346
C           3.7454389    -0.7400946     0.3913555
C           4.1415473    -0.7722020    -0.9663956
O           3.5984079    -1.6140791    -1.8942940
C           2.5396660    -1.0702756    -2.6931600
H           2.3032544    -1.8365370    -3.4342945
H           2.8681348    -0.1560778    -3.2057954
H           1.6611817    -0.8715398    -2.0743164
C           5.2279063     0.0262971    -1.3291202
H           5.5560536    -0.0005879    -2.3641950
C           1.3309163    -2.5738615     2.2881913
H           0.8924139    -3.0238563     3.1669043
C           2.5152765    -1.8802934     2.2126106
H           3.2539455    -1.6116222     2.9502283
N           2.6727863    -1.5102318     0.9023524
N           1.6317244    -1.9229631     0.1273484
C           0.8266273    -2.5643092     0.9643110
H          -0.0926388    -2.9958600     0.5892804
22
448_C9H9N3O_12-6-7-8 (-75,) energy =    -587.8082929
C           5.8027323     0.8502693    -0.3975901
H           6.6139378     1.5101080    -0.6891618
C           5.4124640     0.7458235     0.9355926
H           5.9181752     1.3141873     1.7132620
N           4.4027374    -0.0292863     1.3412278
C           3.7483670    -0.7559244     0.4350469
C           4.1103636    -0.7879193    -0.9297500
O           3.5380436    -1.6644779    -1.8036161
C           2.6381555    -1.1039123    -2.7633439
H           2.3895753    -1.9141147    -3.4516220
H           3.1079996    -0.2838636    -3.3220955
H           1.7298271    -0.7521112    -2.2639973
C           5.1382912     0.0639434    -1.3368162
H           5.4321519     0.0635205    -2.3825367
C           1.3314239    -2.6064215     2.3115526
H           0.9065153    -3.0978849     3.1745793
C           2.5556343    -1.9860656     2.2271991
H           3.3445232    -1.8237219     2.9443227
N           2.6751886    -1.5251016     0.9436896
N           1.5702712    -1.8003863     0.1944841
C           0.7651480    -2.4552216     1.0212786
H          -0.1995347    -2.7934778     0.6649166
22
448_C9H9N3O_12-6-7-8 (-60,) energy =    -587.8070489
C           5.7340510     0.8878703    -0.4285383
H           6.5230350     1.5653375    -0.7401930
C           5.4021802     0.7526103     0.9174161
H           5.9328811     1.3119368     1.6847998
N           4.4151301    -0.0393356     1.3467984
C           3.7336080    -0.7534370     0.4520724
C           4.0468376    -0.7636337    -0.9253218
O           3.4344748    -1.6483049    -1.7590646
C           2.7319600    -1.1129755    -2.8790122
H           2.3930449    -1.9736099    -3.4583217
H           3.3750695    -0.4864162    -3.5096957
H           1.8644957    -0.5352674    -2.5404235
C           5.0442833     0.1118477    -1.3585405
H           5.3043655     0.1432664    -2.4122648
C           1.3710714    -2.6406889     2.3611724
H           0.9766777    -3.1633384     3.2204130
C           2.6068338    -2.0497580     2.2414810
H           3.4353059    -1.9434058     2.9238738
N           2.6734390    -1.5302702     0.9767424
N           1.5231199    -1.7362195     0.2741475
C           0.7439248    -2.4089126     1.1113151
H          -0.2479086    -2.7022451     0.7914135
22
448_C9H9N3O_12-6-7-8 (-45,) energy =    -587.8067099
C           5.6736417     0.8925205    -0.4193371
H           6.4649847     1.5645993    -0.7367493
C           5.3699266     0.7356859     0.9293709
H           5.9220419     1.2740730     1.6964313
N           4.3834348    -0.0562104     1.3626155
C           3.6728263    -0.7447429     0.4726963
C           3.9427932    -0.7158713    -0.9161819
O           3.2906163    -1.5777872    -1.7370684
C           2.8496854    -1.0901978    -3.0006728
H           2.1709668    -1.8502378    -3.3910893
H           3.6816397    -0.9597810    -3.7053571
H           2.3116485    -0.1418182    -2.8884747
C           4.9519936     0.1462994    -1.3505293
H           5.1883966     0.2065074    -2.4080374
C           1.4003241    -2.6943448     2.4268874
H           1.0473326    -3.2424165     3.2883325
C           2.6280243    -2.0966538     2.2667416
H           3.4865400    -2.0065316     2.9133097
N           2.6349758    -1.5409323     1.0151157
N           1.4538358    -1.7313979     0.3607351
C           0.7161361    -2.4302011     1.2137749
H          -0.2885415    -2.7184634     0.9313094
22
448_C9H9N3O_12-6-7-8 (-30,) energy =    -587.8076384
C           5.6386943     0.9062473    -0.4206400
H           6.4318856     1.5730902    -0.7443510
C           5.3707012     0.7206462     0.9305125
H           5.9504628     1.2304402     1.6965226
N           4.3846869    -0.0702780     1.3687700
C           3.6386503    -0.7263120     0.4854533
C           3.8626121    -0.6557778    -0.9127287
O           3.1577751    -1.4744179    -1.7288308
C           2.9549497    -1.0706462    -3.0772978
H           2.1786650    -1.7294640    -3.4695372
H           3.8644248    -1.1901948    -3.6814949
H           2.6154779    -0.0291758    -3.1315313
C           4.8775930     0.1982038    -1.3513540
H           5.0855144     0.2904388    -2.4119510
C           1.4372320    -2.7187059     2.4769852
H           1.1156611    -3.2822414     3.3407815
C           2.6550563    -2.1101185     2.2869104
H           3.5330894    -2.0235625     2.9070074
N           2.6184539    -1.5352843     1.0438064
N           1.4182312    -1.7248477     0.4248690
C           0.7128852    -2.4411831     1.2904157
H          -0.2981662    -2.7327328     1.0353226
22
448_C9H9N3O_12-6-7-8 (-15,) energy =    -587.8085585
C           5.6079673     0.9014824    -0.4285838
H           6.4048807     1.5606522    -0.7588195
C           5.3777129     0.6827998     0.9233182
H           5.9909825     1.1573296     1.6857153
N           4.3881070    -0.1015578     1.3674121
C           3.6030124    -0.7166834     0.4906069
C           3.7822619    -0.6064625    -0.9135128
O           3.0128199    -1.3664284    -1.7254064
C           3.0114319    -1.0831964    -3.1171008
H           2.2351497    -1.7191495    -3.5447253
H           3.9755888    -1.3272798    -3.5833565
H           2.7701459    -0.0301318    -3.3095169
C           4.8014383     0.2402188    -1.3568279
H           4.9796664     0.3678364    -2.4184446
C           1.4472042    -2.7406639     2.4998320
H           1.1485437    -3.3223586     3.3598166
C           2.6623126    -2.1342362     2.2877685
H           3.5589525    -2.0664476     2.8829504
N           2.5919117    -1.5299123     1.0597502
N           1.3729403    -1.6994881     0.4728257
C           0.6896255    -2.4325253     1.3419308
H          -0.3299262    -2.7134967     1.1098775
22
448_C9H9N3O_12-6-7-8 (0,) energy =    -587.8088856
C           5.5905026     0.9130011    -0.4279752
H           6.3880273     1.5707485    -0.7594974
C           5.3982946     0.6493058     0.9214000
H           6.0446914     1.0825056     1.6809947
N           4.4074445    -0.1326500     1.3671545
C           3.5842325    -0.7022453     0.4949588
C           3.7232546    -0.5450180    -0.9100533
O           2.8946388    -1.2382755    -1.7231090
C           3.0583645    -1.1059798    -3.1271808
H           2.3028850    -1.7554034    -3.5712811
H           4.0561948    -1.4314814    -3.4505398
H           2.8880191    -0.0728292    -3.4568111
C           4.7416451     0.3026938    -1.3537163
H           4.8870976     0.4722534    -2.4141650
C           1.4597282    -2.7577828     2.5050281
H           1.1772725    -3.3583492     3.3575036
C           2.6734191    -2.1535604     2.2796823
H           3.5840634    -2.1056760     2.8550640
N           2.5783534    -1.5186830     1.0684331
N           1.3452496    -1.6673361     0.5061588
C           0.6775040    -2.4173323     1.3727801
H          -0.3488070    -2.6867793     1.1575193
22
448_C9H9N3O_12-6-7-8 (15,) energy =    -587.8085585
C           5.7463690     0.7466146    -0.5109288
H           6.5791750     1.3502543    -0.8583256
C           5.6156577     0.4173282     0.8318157
H           6.3361170     0.7594780     1.5710038
N           4.6174945    -0.3467456     1.2918353
C           3.6987405    -0.7953924     0.4443995
C           3.7055443    -0.4757242    -0.9389288
O           2.6617991    -0.8753825    -1.7002631
C           2.7777487    -0.7792569    -3.1124782
H           1.8908577    -1.2717614    -3.5134479
H           3.6775830    -1.2924465    -3.4745870
H           2.7937637     0.2660502    -3.4495925
C           4.7718105     0.2979191    -1.4044070
H           4.8319739     0.5670226    -2.4527605
C           1.3395757    -2.5024675     2.5183351
H           0.7912416    -2.7258808     3.4219699
C           2.2643533    -1.5026575     2.3329118
H           2.6696407    -0.7508398     2.9911765
N           2.6802569    -1.5875692     1.0298374
N           2.0802646    -2.6157436     0.3650090
C           1.2712587    -3.1600842     1.2643478
H           0.6660753    -4.0127499     0.9832882
22
448_C9H9N3O_12-6-7-8 (30,) energy =    -587.8076384
C           5.7612105     0.7732799    -0.5009891
H           6.6008297     1.3702926    -0.8433867
C           5.6500406     0.3986241     0.8328606
H           6.3938828     0.6982038     1.5675275
N           4.6461445    -0.3593600     1.2883909
C           3.7000706    -0.7581460     0.4439305
C           3.6838093    -0.3852382    -0.9238128
O           2.6040830    -0.7059236    -1.6750391
C           2.7765148    -0.8416057    -3.0801694
H           1.8718660    -1.3319936    -3.4429925
H           3.6501362    -1.4622965    -3.3133461
H           2.8783474     0.1332110    -3.5760054
C           4.7561881     0.3816805    -1.3860929
H           4.7921835     0.6891768    -2.4256864
C           1.3547681    -2.5153967     2.4917694
H           0.8169440    -2.7663339     3.3944869
C           2.2848240    -1.5165147     2.3279581
H           2.7048283    -0.7910753     3.0064038
N           2.6816318    -1.5587886     1.0172967
N           2.0650477    -2.5591695     0.3254752
C           1.2646462    -3.1288196     1.2169216
H           0.6495776    -3.9673294     0.9154397
22
448_C9H9N3O_12-6-7-8 (45,) energy =    -587.8067098
C           5.7592502     0.8101566    -0.4946088
H           6.6038187     1.4031921    -0.8317770
C           5.6641065     0.3935503     0.8294460
H           6.4266679     0.6582540     1.5584813
N           4.6585875    -0.3639996     1.2801892
C           3.6919414    -0.7186471     0.4372276
C           3.6513100    -0.2910251    -0.9112331
O           2.5463501    -0.5485049    -1.6560930
C           2.7337345    -0.9454188    -3.0110782
H           1.7636560    -1.3136039    -3.3489287
H           3.4760183    -1.7485837    -3.0849163
H           3.0372483    -0.1045823    -3.6488018
C           4.7301097     0.4673400    -1.3710817
H           4.7451062     0.8106135    -2.4005319
C           1.3608256    -2.5509650     2.4353636
H           0.8275042    -2.8357903     3.3306349
C           2.2866532    -1.5431826     2.3035867
H           2.7065055    -0.8404275     3.0057920
N           2.6783334    -1.5377234     0.9913602
N           2.0633652    -2.5154467     0.2664894
C           1.2680121    -3.1192677     1.1400063
H           0.6553225    -3.9493596     0.8116451
22
448_C9H9N3O_12-6-7-8 (60,) energy =    -587.8070489
C           5.7724090     0.8700197    -0.4974283
H           6.6220777     1.4583556    -0.8298602
C           5.6884966     0.4207798     0.8183086
H           6.4641558     0.6591875     1.5427955
N           4.6823378    -0.3367215     1.2651378
C           3.7000600    -0.6558937     0.4235847
C           3.6373470    -0.1774373    -0.9040385
O           2.5218336    -0.3888566    -1.6548305
C           2.6893327    -1.0660879    -2.8988876
H           1.7085231    -1.0586719    -3.3775445
H           3.0045369    -2.1013738    -2.7265098
H           3.4112433    -0.5594989    -3.5516833
C           4.7252382     0.5658386    -1.3656434
H           4.7206215     0.9396889    -2.3850443
C           1.3955544    -2.5859683     2.3603445
H           0.8736042    -2.9171206     3.2462859
C           2.3221153    -1.5740332     2.2702180
H           2.7524596    -0.9094098     3.0026258
N           2.6959987    -1.4994678     0.9555201
N           2.0701079    -2.4368775     0.1881409
C           1.2850609    -3.0857774     1.0385241
H           0.6671512    -3.8971302     0.6751691
22
448_C9H9N3O_12-6-7-8 (75,) energy =    -587.8082931
C           5.7610421     0.9422761    -0.4553645
H           6.6027823     1.5545258    -0.7637008
C           5.6868898     0.4302440     0.8380597
H           6.4644488     0.6412911     1.5691012
N           4.6872269    -0.3507607     1.2569884
C           3.7002902    -0.6393112     0.4083007
C           3.6333062    -0.1100592    -0.8994102
O           2.5335957    -0.2806506    -1.6876476
C           2.6821228    -1.1727258    -2.7955412
H           1.7651388    -1.0806090    -3.3808630
H           2.7888242    -2.2012548    -2.4364129
H           3.5414100    -0.8961235    -3.4204231
C           4.7110160     0.6659559    -1.3288065
H           4.6873774     1.0803290    -2.3326210
C           1.4099125    -2.6270354     2.3036264
H           0.9079547    -2.9971833     3.1856476
C           2.3654063    -1.6401935     2.2425842
H           2.8407631    -1.0349005     2.9979607
N           2.6979829    -1.4955649     0.9223688
N           2.0146396    -2.3626583     0.1229906
C           1.2374519    -3.0393658     0.9588243
H           0.5808726    -3.8064778     0.5683950
22
448_C9H9N3O_12-6-7-8 (90,) energy =    -587.8086548
C           5.7411521     1.0324037    -0.4187245
H           6.5618122     1.6885879    -0.6911103
C           5.6791027     0.4500030     0.8444467
H           6.4497852     0.6404003     1.5884532
N           4.6929313    -0.3668294     1.2219622
C           3.7096785    -0.6407269     0.3626063
C           3.6540239    -0.0799643    -0.9350396
O           2.5900745    -0.2262088    -1.7784682
C           2.6906263    -1.2850066    -2.7395485
H           1.8129964    -1.1873547    -3.3818542
H           2.6748106    -2.2556275    -2.2377072
H           3.6001263    -1.1762823    -3.3457114
C           4.7042855     0.7609375    -1.3081253
H           4.6676103     1.2139124    -2.2946603
C           1.4381762    -2.6337974     2.2753872
H           0.9731558    -3.0307194     3.1659657
C           2.4506722    -1.7064855     2.2090328
H           3.0125589    -1.1817573     2.9645718
N           2.7065704    -1.4962360     0.8790479
N           1.9112118    -2.2601061     0.0798735
C           1.1477371    -2.9422866     0.9235265
H           0.4155729    -3.6371249     0.5322907
22
448_C9H9N3O_12-6-7-8 (105,) energy =    -587.8077596
C           5.6697815     1.1470199    -0.3693143
H           6.4621922     1.8508645    -0.6031152
C           5.6114089     0.5151597     0.8692171
H           6.3624459     0.7032569     1.6336873
N           4.6423521    -0.3382967     1.2017745
C           3.6788544    -0.6250768     0.3232238
C           3.6588308    -0.0673044    -0.9805671
O           2.6828714    -0.2570038    -1.9171870
C           2.7430634    -1.4800852    -2.6615173
H           1.9374207    -1.4175935    -3.3958498
H           2.5754913    -2.3417939    -2.0120249
H           3.7065077    -1.5661665    -3.1819515
C           4.6732321     0.8418643    -1.2915780
H           4.6468604     1.2998248    -2.2758351
C           1.5050432    -2.7274991     2.2356864
H           1.1459379    -3.2441103     3.1138318
C           2.6292531    -1.9441452     2.1364722
H           3.3865991    -1.6579708     2.8468903
N           2.6855635    -1.4952365     0.8400084
N           1.6404860    -1.9573918     0.0982383
C           0.9339983    -2.7001729     0.9396854
H           0.0368073    -3.1919394     0.5858886
22
448_C9H9N3O_12-6-7-8 (120,) energy =    -587.8071514
C           5.6195907     1.2856978    -0.3471517
H           6.3884283     2.0224634    -0.5575610
C           5.5536501     0.6492736     0.8896311
H           6.2774263     0.8630022     1.6732171
N           4.6001891    -0.2306390     1.1987395
C           3.6771990    -0.5503415     0.2894041
C           3.6982859    -0.0285066    -1.0278362
O           2.8270667    -0.3183482    -2.0359525
C           2.7800996    -1.6711666    -2.5045381
H           2.1931953    -1.6399818    -3.4248563
H           2.2873725    -2.3248395    -1.7821576
H           3.7903340    -2.0366182    -2.7298963
C           4.6793869     0.9273494    -1.3078443
H           4.6858032     1.3589221    -2.3040303
C           1.5875832    -2.8472156     2.0669224
H           1.3164555    -3.5423744     2.8481008
C           2.8007625    -2.2243850     1.8935452
H           3.7193658    -2.2436320     2.4568866
N           2.6882799    -1.4464317     0.7702290
N           1.4448899    -1.5253846     0.2170755
C           0.7872022    -2.3734675     0.9984291
H          -0.2427989    -2.6141797     0.7679033
22
448_C9H9N3O_12-6-7-8 (135,) energy =    -587.8065618
C           5.5937384     1.3591140    -0.3203743
H           6.3362323     2.1281723    -0.5093695
C           5.5274732     0.7141046     0.9137074
H           6.2266481     0.9506244     1.7127575
N           4.5972777    -0.1975488     1.1985328
C           3.7100541    -0.5454949     0.2640204
C           3.7556941    -0.0384230    -1.0566258
O           2.9684653    -0.3850528    -2.1089122
C           2.7334488    -1.7709377    -2.3883030
H           2.4793254    -1.8136387    -3.4499197
H           1.9073984    -2.1547429    -1.7884745
H           3.6393641    -2.3632385    -2.2098050
C           4.6998438     0.9646102    -1.3083740
H           4.7236780     1.3910838    -2.3063888
C           1.6311194    -2.9122970     1.9624789
H           1.3775837    -3.6721328     2.6872919
C           2.8704614    -2.3603072     1.7342095
H           3.8318107    -2.5081349     2.1999605
N           2.7193362    -1.4562719     0.7179726
N           1.4264065    -1.3762403     0.2923885
C           0.7761839    -2.2613819     1.0401843
H          -0.2875262    -2.3984436     0.8928073
22
448_C9H9N3O_12-6-7-8 (150,) energy =    -587.8057030
C           5.5822182     1.4107271    -0.2987601
H           6.3036502     2.2035771    -0.4707608
C           5.4900923     0.7827632     0.9441100
H           6.1496499     1.0537771     1.7654540
N           4.5762717    -0.1503145     1.2061983
C           3.7397994    -0.5426122     0.2421684
C           3.8299441    -0.0660960    -1.0867114
O           3.1333064    -0.4606551    -2.1808934
C           2.6749389    -1.8092021    -2.3264963
H           2.5605082    -1.9572477    -3.4028065
H           1.7218558    -1.9532108    -1.8174830
H           3.4154535    -2.5197679    -1.9407124
C           4.7451500     0.9725117    -1.3149078
H           4.7973672     1.3836616    -2.3182300
C           1.6603183    -2.9518414     1.8839172
H           1.4135628    -3.7492924     2.5696162
C           2.9095739    -2.4371798     1.6197770
H           3.8875817    -2.6590863     2.0176643
N           2.7444530    -1.4618253     0.6769085
N           1.4337384    -1.2931116     0.3389662
C           0.7859434    -2.2015178     1.0619268
H          -0.2897035    -2.2823228     0.9699089
22
448_C9H9N3O_12-6-7-8 (165,) energy =    -587.8044962
C           5.5866269     1.4370316    -0.2805097
H           6.2993346     2.2391017    -0.4465842
C           5.4339991     0.8628989     0.9835210
H           6.0386883     1.1845651     1.8284114
N           4.5260173    -0.0779094     1.2315001
C           3.7564337    -0.5342548     0.2392656
C           3.9123289    -0.1123537    -1.1015302
O           3.3180940    -0.5669548    -2.2301036
C           2.6122362    -1.8094600    -2.2968133
H           2.5130381    -2.0158625    -3.3645979
H           1.6321459    -1.7286123    -1.8267916
H           3.1844204    -2.6156111    -1.8237323
C           4.8189929     0.9390653    -1.3210173
H           4.9199689     1.3095345    -2.3363582
C           1.6921034    -2.9909611     1.8357631
H           1.4553581    -3.8172759     2.4901391
C           2.9406741    -2.4859738     1.5475023
H           3.9284020    -2.7483261     1.8945189
N           2.7601408    -1.4623639     0.6619718
N           1.4409218    -1.2495206     0.3885868
C           0.8028700    -2.1831216     1.0886950
H          -0.2769458    -2.2391792     1.0353872
22
448_C9H9N3O_12-6-7-8 (180,) energy =    -587.8033446
C           6.2474524     0.5270953    -0.3009097
H           7.2063064     0.9983429    -0.4947312
C           5.8375567     0.2449920     1.0047830
H           6.4545362     0.5071504     1.8612823
N           4.6911028    -0.3755450     1.2700744
C           3.8730340    -0.7156377     0.2696562
C           4.1445451    -0.3948302    -1.0799740
O           3.3778358    -0.5425207    -2.1855175
C           2.0699532    -1.1221749    -2.1838261
H           1.7201897    -1.0109987    -3.2120800
H           1.3952063    -0.5826131    -1.5104761
H           2.1057974    -2.1740250    -1.8985461
C           5.3915346     0.2026569    -1.3397426
H           5.6342440     0.4257765    -2.3739100
C           0.9876369    -2.1005053     1.8906437
H           0.1598436    -2.1399200     2.5836692
C           1.8322850    -1.0370927     1.6579121
H           1.8930082    -0.0504787     2.0922427
N           2.7102867    -1.4309127     0.6902876
N           2.5041254    -2.7238670     0.3090173
C           1.4547716    -3.1172779     1.0254814
H           1.0730666    -4.1222972     0.8979911
