20
374_C9H10O_0-7-14-12 (-165,) energy =    -424.2097882
C           1.4449658    -1.6952557    -0.2497788
H           1.6906443    -1.8677295     0.8075433
H           2.0543710    -2.4182490    -0.8113307
C          -0.0408908    -1.9324876    -0.5130767
H          -0.6566413    -1.2335705     0.0605941
H          -0.3213300    -2.9533116    -0.2330790
H          -0.2801203    -1.7834198    -1.5698477
C           1.8987808    -0.2857386    -0.6202586
C           5.9206917     0.9899374     0.2318584
H           6.9303899     1.3278464     0.4498297
C           4.9263457     1.9180483    -0.0914548
H           5.1609712     2.9786401    -0.1223372
C           3.6345868     1.4839560    -0.3731820
H           2.8486748     2.1858375    -0.6326719
C           3.3163461     0.1172765    -0.3316420
C           4.3183354    -0.8058752     0.0039075
H           4.0941485    -1.8672302     0.0467175
C           5.6154484    -0.3716194     0.2768837
H           6.3865924    -1.0953463     0.5263915
O           1.1144409     0.5160016    -1.1054494
20
374_C9H10O_0-7-14-12 (-150,) energy =    -424.2083687
C           1.4393325    -1.6703027    -0.1701905
H           1.6237598    -1.6710604     0.9134799
H           2.0641290    -2.4829304    -0.5682184
C          -0.0334826    -1.9292140    -0.4809702
H          -0.6652659    -1.1373918    -0.0680759
H          -0.3527729    -2.8864389    -0.0556374
H          -0.2079682    -1.9533569    -1.5605732
C           1.9426592    -0.3405869    -0.7248846
C           5.9147362     0.9882241     0.2663084
H           6.9100813     1.3392263     0.5255374
C           4.8921677     1.9070376     0.0138327
H           5.0893559     2.9735602     0.0809075
C           3.6189974     1.4562409    -0.3235142
H           2.8150302     2.1541298    -0.5348569
C           3.3483180     0.0815011    -0.4052667
C           4.3758724    -0.8336909    -0.1323448
H           4.1864430    -1.9017615    -0.1836918
C           5.6559000    -0.3815250     0.1881297
H           6.4497687    -1.0980897     0.3805909
O           1.1997325     0.4045903    -1.3453010
20
374_C9H10O_0-7-14-12 (-135,) energy =    -424.2062457
C           1.4059380    -1.5875616    -0.0631239
H           1.4593237    -1.3713687     1.0141872
H           2.0776016    -2.4445921    -0.2117169
C          -0.0201665    -1.9326384    -0.4866478
H          -0.6935102    -1.0886426    -0.3124717
H          -0.3902620    -2.7964430     0.0754336
H          -0.0660389    -2.1691509    -1.5541346
C           1.9697120    -0.3678065    -0.7843746
C           5.9178841     0.9697810     0.2866506
H           6.9062580     1.3220223     0.5695095
C           4.8697745     1.8808838     0.1309314
H           5.0393741     2.9413032     0.2971593
C           3.6049497     1.4308068    -0.2396408
H           2.7851349     2.1283892    -0.3813148
C           3.3699731     0.0633752    -0.4476517
C           4.4211483    -0.8466505    -0.2666153
H           4.2556356    -1.9096868    -0.4178907
C           5.6938176    -0.3927706     0.0807895
H           6.5082422    -1.1029002     0.1958773
O           1.2751659     0.3106642    -1.5241170
20
374_C9H10O_0-7-14-12 (-120,) energy =    -424.2036581
C           1.3761716    -1.5089604     0.0007246
H           1.3558786    -1.1103725     1.0261623
H           2.0614848    -2.3672028     0.0495146
C          -0.0172549    -1.9351302    -0.4554110
H          -0.6972968    -1.0789450    -0.4805250
H          -0.4309077    -2.6898499     0.2215521
H           0.0120437    -2.3560609    -1.4652680
C           1.9947867    -0.4227285    -0.8714235
C           5.9035260     0.9580460     0.2932590
H           6.8824659     1.3153149     0.6012982
C           4.8264508     1.8447505     0.2215624
H           4.9643786     2.8917234     0.4779359
C           3.5723684     1.3894265    -0.1819428
H           2.7338231     2.0756037    -0.2588765
C           3.3814576     0.0397006    -0.5083200
C           4.4592173    -0.8501877    -0.4071947
H           4.3204673    -1.9015645    -0.6462255
C           5.7200817    -0.3881190    -0.0284384
H           6.5564950    -1.0799854     0.0227830
O           1.3590434     0.1376971    -1.7478359
20
374_C9H10O_0-7-14-12 (-105,) energy =    -424.2011143
C           1.3353338    -1.4203874     0.0496433
H           1.2482337    -0.8640205     0.9952185
H           2.0103840    -2.2570421     0.2823445
C          -0.0262003    -1.9140824    -0.4335229
H          -0.6951437    -1.0734104    -0.6390810
H          -0.4943661    -2.5554410     0.3203920
H           0.0709211    -2.4860247    -1.3615099
C           2.0347979    -0.4947726    -0.9367784
C           5.9020787     0.9545022     0.3000575
H           6.8729133     1.3231412     0.6199470
C           4.7911952     1.8005166     0.3188430
H           4.8947163     2.8284451     0.6559258
C           3.5456971     1.3304928    -0.0976419
H           2.6835404     1.9921700    -0.0982004
C           3.4014417     0.0073443    -0.5334172
C           4.5130799    -0.8441217    -0.5278601
H           4.4067980    -1.8767436    -0.8518184
C           5.7621130    -0.3667746    -0.1282817
H           6.6238872    -1.0285891    -0.1459699
O           1.4966655    -0.1062084    -1.9574802
20
374_C9H10O_0-7-14-12 (-90,) energy =    -424.1999944
C           1.2745430    -1.3335956     0.0940941
H           1.1359310    -0.6479383     0.9436311
H           1.9015553    -2.1447409     0.4941325
C          -0.0607166    -1.8605737    -0.4256485
H          -0.6871191    -1.0428255    -0.7945529
H          -0.6049926    -2.3833469     0.3676529
H           0.0901758    -2.5545545    -1.2579335
C           2.0948546    -0.5997349    -0.9565262
C           5.9124051     0.9746176     0.2941644
H           6.8749322     1.3729307     0.6033130
C           4.7605185     1.7540249     0.4150747
H           4.8239207     2.7620708     0.8161224
C           3.5238799     1.2430962     0.0187627
H           2.6301132     1.8557786     0.1083019
C           3.4316678    -0.0522493    -0.5038938
C           4.5891186    -0.8302600    -0.6248614
H           4.5254928    -1.8340557    -1.0377885
C           5.8245559    -0.3173834    -0.2273549
H           6.7186846    -0.9268624    -0.3277981
O           1.7113327    -0.4561109    -2.1021721
20
374_C9H10O_0-7-14-12 (-75,) energy =    -424.2012596
C           1.2096240    -1.2548899     0.1164618
H           1.0390665    -0.4606709     0.8582495
H           1.7604814    -2.0330767     0.6666449
C          -0.1048223    -1.7938758    -0.4427766
H          -0.6586800    -1.0090844    -0.9673235
H          -0.7366809    -2.1835426     0.3620696
H           0.0782422    -2.5976974    -1.1616642
C           2.1587511    -0.7262498    -0.9493813
C           5.9132787     1.0038620     0.2688763
H           6.8640083     1.4433399     0.5582531
C           4.7239933     1.6990245     0.4935174
H           4.7465216     2.6850922     0.9496819
C           3.5020591     1.1311110     0.1295702
H           2.5779765     1.6767139     0.3057249
C           3.4627361    -0.1350686    -0.4667242
C           4.6612181    -0.8149594    -0.7185339
H           4.6350463    -1.7809051    -1.2157010
C           5.8795434    -0.2544971    -0.3364583
H           6.8039579    -0.7948809    -0.5219825
O           1.9315403    -0.8423050    -2.1398344
20
374_C9H10O_0-7-14-12 (-60,) energy =    -424.2038874
C           1.1673698    -1.1715893     0.1316211
H           0.9714402    -0.2806195     0.7449625
H           1.6408583    -1.8860342     0.8223627
C          -0.1233575    -1.7414623    -0.4521704
H          -0.6067757    -1.0178251    -1.1160751
H          -0.8269207    -2.0010290     0.3456775
H           0.0804653    -2.6386211    -1.0433868
C           2.2174577    -0.8375198    -0.9199621
C           5.9163872     1.0291486     0.2504994
H           6.8556780     1.5022571     0.5240746
C           4.7045218     1.6418433     0.5719908
H           4.6974201     2.5995506     1.0853425
C           3.4984341     1.0277979     0.2304803
H           2.5579387     1.5109474     0.4833827
C           3.4963144    -0.2013062    -0.4418298
C           4.7178590    -0.7899494    -0.7987680
H           4.7122315    -1.7187850    -1.3617283
C           5.9207231    -0.1895646    -0.4337432
H           6.8629975    -0.6637681    -0.6947358
O           2.0899086    -1.1658631    -2.0870170
20
374_C9H10O_0-7-14-12 (-45,) energy =    -424.2064190
C           1.1192357    -1.0733889     0.1316719
H           0.8775286    -0.0953503     0.5700538
H           1.5249660    -1.6637130     0.9670428
C          -0.1275958    -1.7332476    -0.4534101
H          -0.5463055    -1.1304031    -1.2652430
H          -0.8958849    -1.8564909     0.3170315
H           0.1109081    -2.7161815    -0.8691333
C           2.2502996    -0.9168575    -0.8788528
C           5.9187844     1.0367956     0.2390418
H           6.8514621     1.5285244     0.5023623
C           4.7021351     1.5796456     0.6548592
H           4.6842199     2.5005553     1.2313689
C           3.5044686     0.9428360     0.3271864
H           2.5629657     1.3763603     0.6526646
C           3.5137391    -0.2393481    -0.4264423
C           4.7397889    -0.7559799    -0.8726661
H           4.7346899    -1.6473070    -1.4924238
C           5.9357719    -0.1339253    -0.5247629
H           6.8814357    -0.5534171    -0.8573532
O           2.1838203    -1.4163664    -1.9905534
20
374_C9H10O_0-7-14-12 (-30,) energy =    -424.2084398
C           1.0612673    -0.9392007     0.0743371
H           0.7503308     0.1017123     0.2442784
H           1.4013642    -1.3009188     1.0551776
C          -0.1126806    -1.7672843    -0.4444386
H          -0.4638704    -1.3881744    -1.4085129
H          -0.9461322    -1.7381314     0.2652343
H           0.1803385    -2.8106430    -0.5935747
C           2.2633263    -0.9505290    -0.8658302
C           5.9248050     1.0205433     0.2445492
H           6.8561183     1.5146672     0.5084046
C           4.7151422     1.4915139     0.7577901
H           4.7015084     2.3577593     1.4136494
C           3.5197734     0.8529015     0.4267296
H           2.5853944     1.2295638     0.8321250
C           3.5230444    -0.2604283    -0.4264837
C           4.7419810    -0.7085512    -0.9590806
H           4.7273246    -1.5510682    -1.6431154
C           5.9363076    -0.0826067    -0.6142013
H           6.8764372    -0.4476502    -1.0188763
O           2.2332464    -1.5674688    -1.9196051
20
374_C9H10O_0-7-14-12 (-15,) energy =    -424.2098071
C           1.0322296    -0.8653575     0.0328598
H           0.7377422     0.1940510     0.0142892
H           1.2922553    -1.0762116     1.0797667
C          -0.1243026    -1.7476633    -0.4334100
H          -0.3962914    -1.5220291    -1.4684198
H          -1.0040569    -1.5923315     0.1998599
H           0.1496591    -2.8060328    -0.3933427
C           2.2909138    -1.0347630    -0.8140124
C           5.9177683     1.0398742     0.2200115
H           6.8405603     1.5579672     0.4674389
C           4.7180787     1.4269294     0.8198276
H           4.7039114     2.2490540     1.5301694
C           3.5337130     0.7598065     0.5069602
H           2.6080453     1.0714895     0.9808731
C           3.5374726    -0.3001557    -0.4123759
C           4.7472884    -0.6710567    -1.0204507
H           4.7314273    -1.4813725    -1.7420946
C           5.9304091    -0.0119266    -0.7010637
H           6.8629948    -0.3128953    -1.1707135
O           2.2981765    -1.7831713    -1.7800122
20
374_C9H10O_0-7-14-12 (0,) energy =    -424.2102759
C           1.0276817    -0.8343255    -0.0097096
H           0.7893104     0.2285265    -0.1585809
H           1.1948033    -0.9467661     1.0711659
C          -0.1301772    -1.7172142    -0.4714470
H          -0.3144510    -1.5931426    -1.5424704
H          -1.0464054    -1.4615989     0.0710990
H           0.0912115    -2.7746877    -0.3007323
C           2.3367833    -1.1404152    -0.7325555
C           5.9124064     1.0746179     0.1862712
H           6.8231797     1.6252344     0.4065899
C           4.7316388     1.3776869     0.8664429
H           4.7206202     2.1636545     1.6166531
C           3.5622865     0.6716878     0.5839750
H           2.6525339     0.9188928     1.1220112
C           3.5621603    -0.3458815    -0.3824329
C           4.7556457    -0.6419333    -1.0600457
H           4.7398858    -1.4312065    -1.8045632
C           5.9219624     0.0623555    -0.7781978
H           6.8402455    -0.1748905    -1.3085567
O           2.3891947    -2.0168148    -1.5828632
20
374_C9H10O_0-7-14-12 (15,) energy =    -424.2098072
C           1.0069210    -0.7931184    -0.0433273
H           0.8293345     0.2552835    -0.3216065
H           1.0810782    -0.7939984     1.0538734
C          -0.1464419    -1.6847172    -0.4997078
H          -0.2455611    -1.6698743    -1.5890912
H          -1.0902428    -1.3450929    -0.0603655
H           0.0212331    -2.7240735    -0.2034459
C           2.3542043    -1.2177902    -0.6217045
C           5.8954894     1.1038792     0.1525689
H           6.7986420     1.6786432     0.3400997
C           4.7498294     1.3354606     0.9158718
H           4.7605036     2.0862160     1.7013238
C           3.5886519     0.6017246     0.6729204
H           2.7052884     0.7928909     1.2743405
C           3.5630097    -0.3742046    -0.3348879
C           4.7253330    -0.6085851    -1.0865573
H           4.6952183    -1.3781337    -1.8510791
C           5.8806865     0.1301879    -0.8507072
H           6.7722237    -0.0528902    -1.4444093
O           2.4440979    -2.2048015    -1.3365889
20
374_C9H10O_0-7-14-12 (30,) energy =    -424.2084398
C           0.9964553    -0.7524434    -0.1224446
H           0.8645309     0.2430115    -0.5699040
H           0.9883382    -0.5822495     0.9638462
C          -0.1381015    -1.6937674    -0.5220681
H          -0.1535590    -1.8501437    -1.6046605
H          -1.1051003    -1.2806565    -0.2164874
H          -0.0161428    -2.6750706    -0.0544479
C           2.3733273    -1.2663600    -0.5336632
C           5.8878855     1.1271973     0.1322143
H           6.7856810     1.7177178     0.2946138
C           4.7879298     1.2825921     0.9774765
H           4.8307839     1.9865495     1.8041101
C           3.6317131     0.5313729     0.7649221
H           2.7831313     0.6611298     1.4300220
C           3.5673994    -0.3875057    -0.2929064
C           4.6891059    -0.5559577    -1.1197531
H           4.6376982    -1.2929251    -1.9148552
C           5.8358964     0.2066908    -0.9187286
H           6.6929623     0.0805286    -1.5747650
O           2.5000869    -2.3342282    -1.1129303
20
374_C9H10O_0-7-14-12 (45,) energy =    -424.2064190
C           0.9874458    -0.6939830    -0.2678190
H           0.8904953     0.1611921    -0.9535451
H           0.9332438    -0.2551864     0.7380043
C          -0.1378227    -1.7033771    -0.4851143
H          -0.0954529    -2.1222685    -1.4943735
H          -1.1142481    -1.2281405    -0.3444703
H          -0.0562602    -2.5390931     0.2168386
C           2.3765173    -1.2793341    -0.4976254
C           5.8893718     1.1217872     0.1494828
H           6.7877976     1.7120018     0.3091728
C           4.8376368     1.1903783     1.0643452
H           4.9197289     1.8236565     1.9435374
C           3.6788489     0.4417977     0.8542556
H           2.8679567     0.4997600     1.5749504
C           3.5656733    -0.3882414    -0.2699467
C           4.6439576    -0.4799331    -1.1633212
H           4.5648036    -1.1582082    -2.0072808
C           5.7899924     0.2857195    -0.9664865
H           6.6113222     0.2237893    -1.6753242
O           2.5265037    -2.4012597    -0.9543468
20
374_C9H10O_0-7-14-12 (60,) energy =    -424.2038874
C           0.9996997    -0.6890421    -0.3763830
H           0.9719104     0.0379580    -1.2024846
H           0.9016515    -0.0796212     0.5332304
C          -0.1370242    -1.7017172    -0.4942551
H          -0.0411372    -2.2884160    -1.4121685
H          -1.1073076    -1.1943688    -0.5034810
H          -0.1240350    -2.4055247     0.3439569
C           2.3854942    -1.3202405    -0.4121544
C           5.8810881     1.1310773     0.1431171
H           6.7762264     1.7311332     0.2831256
C           4.8864032     1.1192332     1.1218063
H           5.0103690     1.6999998     2.0318209
C           3.7317519     0.3572979     0.9359006
H           2.9610791     0.3520986     1.7026868
C           3.5670669    -0.4042896    -0.2283879
C           4.5895325    -0.4204463    -1.1877528
H           4.4795355    -1.0490865    -2.0666176
C           5.7293223     0.3612943    -1.0135462
H           6.5070371     0.3603192    -1.7725100
O           2.5526465    -2.4959725    -0.6874896
20
374_C9H10O_0-7-14-12 (75,) energy =    -424.2012596
C           1.0163625    -0.6987058    -0.4690316
H           1.0838281    -0.0868339    -1.3816000
H           0.8685511     0.0300331     0.3416559
C          -0.1399418    -1.6924154    -0.5498013
H           0.0084998    -2.3966068    -1.3735250
H          -1.0892021    -1.1693911    -0.7054081
H          -0.2164415    -2.2803323     0.3701480
C           2.3775576    -1.3549710    -0.2879575
C           5.8643888     1.1448705     0.1203687
H           6.7540394     1.7599734     0.2249466
C           4.9473828     1.0570493     1.1689400
H           5.1254018     1.5959606     2.0956585
C           3.8003735     0.2737009     1.0316758
H           3.0890318     0.2075440     1.8515889
C           3.5659816    -0.4315065    -0.1549445
C           4.5048754    -0.3649087    -1.1922782
H           4.3433562    -0.9416209    -2.0990448
C           5.6403876     0.4336716    -1.0607557
H           6.3567339     0.4916219    -1.8759034
O           2.5298106    -2.5621614    -0.3301840
20
374_C9H10O_0-7-14-12 (90,) energy =    -424.1999944
C           1.0570197    -0.7076313    -0.5648394
H           1.2313995    -0.2171967    -1.5344771
H           0.8684178     0.1217419     0.1334599
C          -0.1270677    -1.6693013    -0.6271634
H           0.0642188    -2.4794038    -1.3372475
H          -1.0360034    -1.1434833    -0.9373353
H          -0.3090731    -2.1294582     0.3487016
C           2.3624351    -1.3687004    -0.1475307
C           5.8461709     1.1654866     0.0931915
H           6.7269911     1.7987334     0.1551468
C           5.0228704     0.9999896     1.2084165
H           5.2622868     1.5018495     2.1421359
C           3.8911718     0.1873199     1.1296037
H           3.2562368     0.0556749     2.0023826
C           3.5763478    -0.4678271    -0.0667493
C           4.4050640    -0.3005039    -1.1824816
H           4.1706741    -0.8132226    -2.1121824
C           5.5359085     0.5131184    -1.1014296
H           6.1757455     0.6348994    -1.9713710
O           2.4416748    -2.5557550     0.1071140
20
374_C9H10O_0-7-14-12 (105,) energy =    -424.2011143
C           1.0987146    -0.7395310    -0.6670429
H           1.3629251    -0.3947437    -1.6775615
H           0.8841231     0.1833690    -0.1071773
C          -0.1104142    -1.6714539    -0.6891036
H           0.1024706    -2.5762095    -1.2668648
H          -0.9755795    -1.1712268    -1.1365067
H          -0.3768405    -1.9882871     0.3233699
C           2.3351630    -1.3580379    -0.0285399
C           5.8287595     1.1657646     0.0776201
H           6.7042022     1.8087016     0.1088644
C           5.0963461     0.9234420     1.2416665
H           5.3987480     1.3794497     2.1805960
C           3.9761394     0.0931491     1.2042764
H           3.4142826    -0.1086865     2.1124120
C           3.5776936    -0.4990388    -0.0007087
C           4.3010815    -0.2340494    -1.1700054
H           3.9904519    -0.6789996    -2.1123863
C           5.4322778     0.5821297    -1.1269584
H           5.9997535     0.7666047    -2.0352016
O           2.3119849    -2.4502443     0.5089998
20
374_C9H10O_0-7-14-12 (120,) energy =    -424.2036581
C           1.1235327    -0.7820554    -0.7644015
H           1.4505559    -0.6099783    -1.7998054
H           0.8930139     0.2209626    -0.3750151
C          -0.1018199    -1.6914989    -0.7120365
H           0.1246362    -2.6792785    -1.1253902
H          -0.9285034    -1.2585592    -1.2848778
H          -0.4325610    -1.8397813     0.3198374
C           2.3005148    -1.3014027     0.0530410
C           5.8334023     1.1601534     0.0804562
H           6.7164256     1.7932474     0.0982177
C           5.1735264     0.8471021     1.2712709
H           5.5390643     1.2395741     2.2163903
C           4.0459794     0.0279109     1.2506612
H           3.5378760    -0.2361807     2.1737015
C           3.5617260    -0.4782262     0.0365559
C           4.2115404    -0.1375010    -1.1573214
H           3.8382349    -0.5142708    -2.1062519
C           5.3553639     0.6611252    -1.1327002
H           5.8682295     0.8996832    -2.0605729
O           2.1965964    -2.2702003     0.7858284
20
374_C9H10O_0-7-14-12 (135,) energy =    -424.2062457
C           1.1465150    -0.8411235    -0.8488148
H           1.5265821    -0.8596232    -1.8797946
H           0.9077179     0.2152052    -0.6555939
C          -0.0933794    -1.7216425    -0.7089135
H           0.1425451    -2.7684290    -0.9237346
H          -0.8775413    -1.3947854    -1.3997963
H          -0.4874154    -1.6808395     0.3104631
C           2.2667132    -1.2213881     0.1136829
C           5.8520217     1.1596024     0.0867797
H           6.7501446     1.7713586     0.0965630
C           5.2531968     0.7787249     1.2906200
H           5.6807609     1.0973141     2.2374963
C           4.1069047    -0.0121900     1.2786937
H           3.6403375    -0.3304201     2.2059659
C           3.5389607    -0.4221057     0.0630619
C           4.1325371    -0.0162505    -1.1406158
H           3.7028953    -0.3197057    -2.0912196
C           5.2946186     0.7556211    -1.1278118
H           5.7611974     1.0457727    -2.0653259
O           2.1023014    -2.0673435     0.9781272
20
374_C9H10O_0-7-14-12 (150,) energy =    -424.2083687
C           1.1856319    -0.9403090    -0.9385886
H           1.6197084    -1.2044926    -1.9137531
H           0.9938584     0.1407025    -0.9932911
C          -0.1060488    -1.7200810    -0.7012700
H           0.0854802    -2.7966989    -0.6733247
H          -0.8291570    -1.5160990    -1.4979128
H          -0.5577333    -1.4461680     0.2566272
C           2.2315544    -1.1708640     0.1486362
C           5.8616500     1.1412961     0.1051081
H           6.7733619     1.7327830     0.1112923
C           5.3197875     0.6777952     1.3072563
H           5.8064168     0.9119690     2.2502342
C           4.1549197    -0.0844196     1.2975947
H           3.7254650    -0.4634721     2.2195303
C           3.5113921    -0.3869792     0.0875571
C           4.0521135     0.0977621    -1.1126830
H           3.5667467    -0.1192901    -2.0595738
C           5.2290636     0.8463223    -1.1040841
H           5.6498907     1.2024793    -2.0404550
O           2.0056427    -1.9123916     1.0926947
20
374_C9H10O_0-7-14-12 (165,) energy =    -424.2097882
C           1.4655728    -1.7127084    -0.3464972
H           1.7496840    -2.1621625     0.6161590
H           2.0969886    -2.2095243    -1.0965138
C          -0.0158279    -1.9537022    -0.6306571
H          -0.6427780    -1.4786383     0.1292541
H          -0.2342098    -3.0266983    -0.6413807
H          -0.3026651    -1.5313518    -1.5981678
C           1.8344701    -0.2317957    -0.3191491
C           5.9445329     0.9697665     0.1199018
H           6.9792090     1.2866999     0.2208095
C           4.9721723     1.8793805    -0.3064383
H           5.2501119     2.9035469    -0.5402991
C           3.6471832     1.4732227    -0.4324811
H           2.8748152     2.1636839    -0.7555007
C           3.2751675     0.1517692    -0.1389240
C           4.2597274    -0.7567074     0.2783238
H           3.9959890    -1.7848195     0.5063482
C           5.5861657    -0.3471082     0.4139300
H           6.3394923    -1.0558417     0.7469393
O           0.9812489     0.6278673    -0.4815658
20
374_C9H10O_0-7-14-12 (180,) energy =    -424.2102762
C           1.4587110    -1.7072568    -0.2952000
H           1.7203704    -2.0192558     0.7260724
H           2.0836987    -2.3234652    -0.9572591
C          -0.0237786    -1.9513711    -0.5709536
H          -0.6502233    -1.3598632     0.1029143
H          -0.2692260    -3.0098428    -0.4347061
H          -0.2847203    -1.6629601    -1.5932885
C           1.8658372    -0.2466371    -0.4706497
C           5.9407663     0.9820861     0.1760245
H           6.9653732     1.3076191     0.3354434
C           4.9621744     1.9080041    -0.1982006
H           5.2250728     2.9541130    -0.3300515
C           3.6508137     1.4901715    -0.4021036
H           2.8743096     2.1901464    -0.6928719
C           3.2973694     0.1417008    -0.2353478
C           4.2864466    -0.7800781     0.1404503
H           4.0368485    -1.8277742     0.2755969
C           5.6012029    -0.3614021     0.3449661
H           6.3595140    -1.0832514     0.6358189
O           1.0418224     0.5950843    -0.7967054
