20
374_C9H10O_3-0-7-14 (-165,) energy =    -424.2097723
C           0.9974990    -0.7531856    -0.0885325
H           0.6407533     0.2533434    -0.3554445
H           1.2127198    -0.7137094     0.9867043
C          -0.0756458    -1.8022247    -0.3786461
H          -0.3042960    -1.8434885    -1.4467462
H          -0.9954661    -1.5710056     0.1686653
H           0.2623511    -2.7991185    -0.0785507
C           2.2955328    -1.0063119    -0.8526100
C           5.9372042     1.0066029     0.2532035
H           6.8648834     1.5056772     0.5207301
C           4.7495701     1.3440760     0.9045358
H           4.7499232     2.1079188     1.6773150
C           3.5593011     0.7006727     0.5652653
H           2.6436202     0.9765694     1.0787219
C           3.5441644    -0.2848494    -0.4336351
C           4.7435549    -0.6105232    -1.0872681
H           4.7146037    -1.3699174    -1.8618152
C           5.9317370     0.0267543    -0.7442467
H           6.8550370    -0.2366355    -1.2531358
O           2.3219338    -1.7946965    -1.7863758
20
374_C9H10O_3-0-7-14 (-150,) energy =    -424.2086527
C           0.9462872    -0.6830552    -0.1866296
H           0.4691550     0.2154531    -0.6066162
H           1.1475774    -0.4563152     0.8653298
C           0.0039480    -1.8851672    -0.2957070
H          -0.1793572    -2.1374728    -1.3428867
H          -0.9536554    -1.6690107     0.1892157
H           0.4391838    -2.7668010     0.1869410
C           2.2540572    -0.9009415    -0.9487553
C           5.9486410     0.9239595     0.3033029
H           6.8901030     1.3747188     0.6061180
C           4.7642818     1.2782935     0.9510064
H           4.7804987     2.0083282     1.7556297
C           3.5560645     0.6952395     0.5680826
H           2.6446766     0.9879574     1.0792861
C           3.5185718    -0.2450725    -0.4730767
C           4.7159898    -0.5850066    -1.1246996
H           4.6704351    -1.3063921    -1.9338662
C           5.9217871    -0.0104203    -0.7367106
H           6.8422793    -0.2866153    -1.2439000
O           2.2705100    -1.6176924    -1.9393721
20
374_C9H10O_3-0-7-14 (-135,) energy =    -424.2076564
C           0.8919790    -0.6012544    -0.2905227
H           0.3124685     0.1359681    -0.8642450
H           1.0405657    -0.1768766     0.7057511
C           0.1037612    -1.9143969    -0.1909996
H          -0.0248044    -2.3545295    -1.1829598
H          -0.8833358    -1.7398508     0.2494159
H           0.6310096    -2.6420125     0.4360298
C           2.2157203    -0.7979933    -1.0314430
C           5.9486282     0.8463640     0.3527534
H           6.9002182     1.2509484     0.6874066
C           4.7694376     1.2032284     1.0077855
H           4.7993664     1.8889019     1.8501603
C           3.5473050     0.6802307     0.5838555
H           2.6422049     0.9766273     1.1032923
C           3.4900210    -0.2023373    -0.5059384
C           4.6844065    -0.5456074    -1.1630701
H           4.6247553    -1.2220883    -2.0091669
C           5.9033110    -0.0308609    -0.7354957
H           6.8197878    -0.3092831    -1.2487203
O           2.2299798    -1.4618255    -2.0590362
20
374_C9H10O_3-0-7-14 (-120,) energy =    -424.2072201
C           0.8806042    -0.5232314    -0.4859980
H           0.2611622    -0.0396830    -1.2519653
H           0.9364292     0.1657708     0.3600749
C           0.2190616    -1.8439824    -0.0588336
H           0.1712698    -2.5307847    -0.9082983
H          -0.7977294    -1.6662674     0.3064934
H           0.7862643    -2.3307064     0.7427282
C           2.2404192    -0.7773769    -1.1358661
C           5.9462438     0.7965880     0.3959822
H           6.8917344     1.1836158     0.7667689
C           4.7648238     1.0544143     1.0919044
H           4.7875820     1.6411034     2.0061819
C           3.5494646     0.5608383     0.6160628
H           2.6443434     0.7733143     1.1747177
C           3.5022355    -0.2010802    -0.5617165
C           4.7007880    -0.4555828    -1.2515829
H           4.6502645    -1.0480096    -2.1590402
C           5.9111611     0.0392666    -0.7793368
H           6.8295625    -0.1637179    -1.3235405
O           2.2874077    -1.4734103    -2.1413535
20
374_C9H10O_3-0-7-14 (-105,) energy =    -424.2074056
C           0.8488722    -0.4953972    -0.5919703
H           0.1714721    -0.2325052    -1.4118928
H           0.8623732     0.3472411     0.1046433
C           0.3270502    -1.7654922     0.1047793
H           0.2938522    -2.5967469    -0.6058026
H          -0.6823337    -1.6032186     0.4970260
H           0.9720573    -2.0576565     0.9414662
C           2.2121144    -0.7483718    -1.2312132
C           5.8936995     0.7168184     0.4550719
H           6.8326833     1.0785370     0.8657922
C           4.7019578     0.9221406     1.1512916
H           4.7106901     1.4406637     2.1061139
C           3.4947795     0.4639329     0.6225096
H           2.5795422     0.6305333     1.1809994
C           3.4674087    -0.2119947    -0.6072006
C           4.6758219    -0.4193293    -1.2943496
H           4.6400748    -0.9489631    -2.2406060
C           5.8778477     0.0444311    -0.7711963
H           6.8047120    -0.1177268    -1.3147691
O           2.2702269    -1.4159334    -2.2549949
20
374_C9H10O_3-0-7-14 (-90,) energy =    -424.2078165
C           0.8286713    -0.4877836    -0.6800681
H           0.0979236    -0.4055855    -1.4904225
H           0.7914854     0.4407663    -0.1009695
C           0.4684923    -1.6907210     0.2130542
H           0.4822048    -2.6157425    -0.3721777
H          -0.5339807    -1.5678800     0.6363370
H           1.1750747    -1.8041352     1.0428256
C           2.1874307    -0.6835072    -1.3454453
C           5.8441274     0.6368732     0.5054552
H           6.7762969     0.9641480     0.9583993
C           4.6364604     0.8284185     1.1782027
H           4.6259163     1.3027247     2.1557323
C           3.4385564     0.4131694     0.5959199
H           2.5089403     0.5693834     1.1337750
C           3.4364818    -0.2036085    -0.6647940
C           4.6594064    -0.3957796    -1.3290517
H           4.6419180    -0.8774669    -2.3011550
C           5.8530792     0.0235090    -0.7513536
H           6.7924496    -0.1270738    -1.2764980
O           2.2536044    -1.2605457    -2.4219524
20
374_C9H10O_3-0-7-14 (-75,) energy =    -424.2078306
C           0.8022690    -0.5122824    -0.7254860
H           0.0391874    -0.5784744    -1.5060080
H           0.6809120     0.4546657    -0.2215052
C           0.6171943    -1.6578665     0.2881869
H           0.7102402    -2.6298121    -0.2080578
H          -0.3773172    -1.6054711     0.7438092
H           1.3607854    -1.6176651     1.0905038
C           2.1505816    -0.5808110    -1.4355395
C           5.8014898     0.5510664     0.5480324
H           6.7316623     0.8328794     1.0343801
C           4.5823606     0.7870332     1.1853661
H           4.5604733     1.2542598     2.1661253
C           3.3875167     0.4246831     0.5631427
H           2.4479045     0.6191364     1.0704701
C           3.3991480    -0.1762955    -0.7051680
C           4.6322918    -0.4041785    -1.3376780
H           4.6246893    -0.8642926    -2.3203206
C           5.8242077    -0.0459038    -0.7163356
H           6.7724053    -0.2293832    -1.2144767
O           2.2162096    -1.0012074    -2.5820427
20
374_C9H10O_3-0-7-14 (-60,) energy =    -424.2068140
C           0.7791796    -0.5576644    -0.7630880
H           0.0268279    -0.7635196    -1.5292832
H           0.5368327     0.4207101    -0.3235779
C           0.7396644    -1.6341118     0.3369442
H           0.9566036    -2.6242679    -0.0791185
H          -0.2574423    -1.6736295     0.7883816
H           1.4646141    -1.4411928     1.1322162
C           2.1153319    -0.4618713    -1.4956445
C           5.7724311     0.4729072     0.5761576
H           6.7041923     0.7070251     1.0842593
C           4.5519507     0.7706235     1.1847755
H           4.5310554     1.2432221     2.1629782
C           3.3554934     0.4626332     0.5370803
H           2.4135737     0.7093084     1.0174106
C           3.3672075    -0.1379323    -0.7312982
C           4.6009787    -0.4165408    -1.3406734
H           4.5949504    -0.8645043    -2.3289937
C           5.7946487    -0.1219926    -0.6889604
H           6.7438306    -0.3508278    -1.1659792
O           2.1739050    -0.6940043    -2.6945991
20
374_C9H10O_3-0-7-14 (-45,) energy =    -424.2047579
C           0.7490743    -0.6337940    -0.8093570
H           0.0595261    -0.9902672    -1.5796962
H           0.3546492     0.3342458    -0.4622077
C           0.8006122    -1.6092367     0.3779220
H           1.2033617    -2.5816469     0.0722217
H          -0.2106055    -1.7772929     0.7640372
H           1.4178916    -1.2406703     1.2000600
C           2.0723587    -0.3710831    -1.5300723
C           5.7448824     0.4097149     0.5756886
H           6.6808528     0.6073019     1.0914688
C           4.5316688     0.7534992     1.1746492
H           4.5209811     1.2294366     2.1514060
C           3.3296558     0.4874423     0.5187615
H           2.3929157     0.7741360     0.9874554
C           3.3293346    -0.1115747    -0.7501584
C           4.5560553    -0.4271667    -1.3546997
H           4.5441100    -0.8645187    -2.3478208
C           5.7546988    -0.1819720    -0.6908619
H           6.6983591    -0.4441317    -1.1616110
O           2.1176781    -0.4241088    -2.7504677
20
374_C9H10O_3-0-7-14 (-30,) energy =    -424.2022586
C           0.7475072    -0.6919583    -0.8470371
H           0.1752590    -1.2021744    -1.6279662
H           0.1915856     0.2339642    -0.6303196
C           0.8217134    -1.5470513     0.4258585
H           1.4326846    -2.4434585     0.2704243
H          -0.1847234    -1.8781983     0.7045094
H           1.2404399    -1.0081180     1.2781542
C           2.0597365    -0.2822509    -1.5256661
C           5.7607406     0.3456315     0.5815031
H           6.7043549     0.5062218     1.0961550
C           4.5603259     0.7059621     1.1959699
H           4.5674777     1.1601407     2.1830779
C           3.3475150     0.4849413     0.5429217
H           2.4215807     0.7878237     1.0221323
C           3.3243378    -0.0817531    -0.7401849
C           4.5393316    -0.4087619    -1.3624072
H           4.5131361    -0.8161405    -2.3680182
C           5.7478479    -0.2132368    -0.6996533
H           6.6815069    -0.4866338    -1.1837663
O           2.0875616    -0.1757736    -2.7427977
20
374_C9H10O_3-0-7-14 (-15,) energy =    -424.2002667
C           0.7434202    -0.7627878    -0.8820337
H           0.3384221    -1.4571764    -1.6266707
H           0.0504520     0.0913225    -0.8868129
C           0.7498463    -1.4197623     0.5039203
H           1.5455938    -2.1666461     0.5971088
H          -0.2048534    -1.9317513     0.6677644
H           0.8720116    -0.7003529     1.3174683
C           2.0526541    -0.2677976    -1.5171550
C           5.7865662     0.3064847     0.5511336
H           6.7394024     0.4534150     1.0527484
C           4.5947746     0.5993213     1.2153206
H           4.6168697     0.9876769     2.2299429
C           3.3699865     0.3953463     0.5787528
H           2.4537679     0.6460079     1.1016649
C           3.3245348    -0.0857516    -0.7380004
C           4.5316539    -0.3457310    -1.4078599
H           4.4885607    -0.6875330    -2.4369095
C           5.7522347    -0.1677598    -0.7634035
H           6.6783939    -0.3889318    -1.2869933
O           2.0637652    -0.0791014    -2.7247469
20
374_C9H10O_3-0-7-14 (0,) energy =    -424.1993381
C           1.0772648    -1.7665846     0.0608701
H           0.6894335    -2.1605961     1.0093411
H           0.8211365    -2.5328492    -0.6823105
C           0.3654477    -0.4579139    -0.2983692
H           0.3564893     0.2575611     0.5296683
H          -0.6803733    -0.6717986    -0.5454627
H           0.8162330     0.0329500    -1.1668823
C           2.6096671    -1.8705905     0.1569577
C           5.4727474     1.2773085    -0.5244139
H           6.2133869     2.0535429    -0.6977356
C           4.2411498     1.6016762     0.0449481
H           4.0244189     2.6281693     0.3280441
C           3.2813703     0.6102954     0.2544214
H           2.3377876     0.8798972     0.7124186
C           3.5508135    -0.7237362    -0.0862465
C           4.8067552    -1.0418278    -0.6322100
H           5.0181770    -2.0799388    -0.8663708
C           5.7537593    -0.0493703    -0.8637894
H           6.7142929    -0.3085551    -1.3009154
O           3.0751120    -2.9803730     0.3735515
20
374_C9H10O_3-0-7-14 (15,) energy =    -424.2002668
C           1.0724011    -1.7424788     0.1436488
H           0.7234444    -1.8795102     1.1776393
H           0.7354009    -2.6398455    -0.3872888
C           0.4217190    -0.4942855    -0.4657068
H           0.4846216     0.3815959     0.1849251
H          -0.6421061    -0.6882600    -0.6418807
H           0.8729793    -0.2282065    -1.4275873
C           2.6021048    -1.8888161     0.1763956
C           5.4416964     1.2811980    -0.4848488
H           6.1749944     2.0653564    -0.6535379
C           4.2525051     1.5695224     0.1858760
H           4.0625193     2.5744367     0.5530840
C           3.3025679     0.5677780     0.3883567
H           2.3923422     0.8040332     0.9280873
C           3.5406363    -0.7395632    -0.0607516
C           4.7555918    -1.0250925    -0.7056023
H           4.9462302    -2.0454368    -1.0221677
C           5.6911193    -0.0198002    -0.9312498
H           6.6196943    -0.2500820    -1.4465660
O           3.0635332    -3.0087328     0.3403418
20
374_C9H10O_3-0-7-14 (30,) energy =    -424.2022586
C           1.0962956    -1.6951128     0.2087520
H           0.8185153    -1.5689972     1.2671850
H           0.6833945    -2.6635990    -0.0898885
C           0.4775081    -0.5573516    -0.6155993
H           0.7390717     0.4335732    -0.2389809
H          -0.6145729    -0.6422027    -0.5961239
H           0.7934489    -0.6053786    -1.6638676
C           2.6168672    -1.8845585     0.1606306
C           5.4201091     1.3250655    -0.4492688
H           6.1424070     2.1221066    -0.6044294
C           4.2606233     1.5677439     0.2890419
H           4.0845518     2.5488664     0.7216030
C           3.3249372     0.5497800     0.4747123
H           2.4366355     0.7444791     1.0677950
C           3.5488215    -0.7274509    -0.0606373
C           4.7342514    -0.9694887    -0.7723109
H           4.9140300    -1.9692329    -1.1545261
C           5.6549639     0.0536886    -0.9805930
H           6.5609645    -0.1402078    -1.5483935
O           3.0746515    -3.0145501     0.2447368
20
374_C9H10O_3-0-7-14 (45,) energy =    -424.2047579
C           1.1034697    -1.6530688     0.2634018
H           0.9399668    -1.3490392     1.3093548
H           0.6305034    -2.6323989     0.1485650
C           0.4550326    -0.6155852    -0.6676907
H           0.8503352     0.3913553    -0.5173831
H          -0.6257035    -0.5837063    -0.4919579
H           0.6109795    -0.8783156    -1.7202564
C           2.6018401    -1.8938869     0.0725576
C           5.4278835     1.3211915    -0.3835698
H           6.1545440     2.1207046    -0.5012703
C           4.2569166     1.5435347     0.3432234
H           4.0751328     2.5115435     0.8021327
C           3.3177330     0.5216423     0.4827938
H           2.4182001     0.7013775     1.0640722
C           3.5472446    -0.7383700    -0.0905058
C           4.7408845    -0.9588789    -0.7951411
H           4.9199087    -1.9454519    -1.2102707
C           5.6679418     0.0673321    -0.9532612
H           6.5819761    -0.1096694    -1.5136526
O           3.0265079    -3.0378533     0.0002487
20
374_C9H10O_3-0-7-14 (60,) energy =    -424.2068140
C           1.1388720    -1.5921686     0.3256953
H           1.0838331    -1.1523841     1.3320143
H           0.6555661    -2.5717444     0.3737693
C           0.4063944    -0.6758603    -0.6714141
H           0.8516850     0.3213010    -0.7225311
H          -0.6430986    -0.5647038    -0.3785188
H           0.4274051    -1.1026358    -1.6803745
C           2.6005072    -1.8572656    -0.0271000
C           5.4720109     1.3367103    -0.3329294
H           6.2088422     2.1314026    -0.4147897
C           4.2770161     1.5611847     0.3527975
H           4.0846152     2.5270312     0.8119150
C           3.3270069     0.5444653     0.4509862
H           2.4065448     0.7294730     0.9962385
C           3.5665863    -0.7114383    -0.1277258
C           4.7796419    -0.9305214    -0.7997754
H           4.9590529    -1.9118011    -1.2268426
C           5.7216513     0.0877450    -0.9097205
H           6.6530679    -0.0900390    -1.4404883
O           2.9740488    -2.9952051    -0.2728005
20
374_C9H10O_3-0-7-14 (75,) energy =    -424.2078306
C           1.1612704    -1.5447964     0.3612004
H           1.1893505    -1.0075328     1.3173760
H           0.7166951    -2.5269360     0.5446234
C           0.3058143    -0.7625682    -0.6539164
H           0.7177441     0.2314099    -0.8553552
H          -0.7140528    -0.6372284    -0.2750354
H           0.2483952    -1.3018732    -1.6054665
C           2.5750697    -1.8016878    -0.1506567
C           5.5315470     1.3272274    -0.2688208
H           6.2889927     2.1057662    -0.3052417
C           4.3090523     1.5729158     0.3583108
H           4.1132503     2.5403169     0.8126945
C           3.3351496     0.5751857     0.4047791
H           2.3915786     0.7810590     0.9001110
C           3.5745053    -0.6807222    -0.1742946
C           4.8104322    -0.9166525    -0.7983653
H           4.9827845    -1.8943062    -1.2363571
C           5.7807417     0.0789141    -0.8477260
H           6.7323747    -0.1144777    -1.3354574
O           2.8789164    -2.9071835    -0.5761749
20
374_C9H10O_3-0-7-14 (90,) energy =    -424.2078165
C           1.1775363    -1.4911470     0.3759413
H           1.2439959    -0.8605999     1.2686542
H           0.8178959    -2.4761601     0.6887206
C           0.1876742    -0.8833083    -0.6365605
H           0.5096523     0.1093024    -0.9707702
H          -0.8066832    -0.7837740    -0.1887247
H           0.1034036    -1.5266128    -1.5182672
C           2.5462778    -1.7156212    -0.2592120
C           5.6103216     1.3091161    -0.2020375
H           6.3947070     2.0613890    -0.1963771
C           4.3725510     1.5872753     0.3795892
H           4.1901330     2.5558916     0.8369159
C           3.3662922     0.6208917     0.3773409
H           2.4096719     0.8547964     0.8334583
C           3.5860022    -0.6337375    -0.2121095
C           4.8343909    -0.8991803    -0.7992873
H           4.9877318    -1.8721767    -1.2543449
C           5.8396444     0.0619664    -0.7918619
H           6.8025432    -0.1563123    -1.2457881
O           2.7787334    -2.7708934    -0.8324352
20
374_C9H10O_3-0-7-14 (105,) energy =    -424.2074056
C           1.1642346    -1.4024148     0.3626447
H           1.2104715    -0.6538632     1.1582733
H           0.9116908    -2.3612933     0.8285090
C           0.0738061    -1.0373811    -0.6613747
H           0.2828306    -0.0757785    -1.1441464
H          -0.9042115    -0.9652766    -0.1742109
H           0.0181503    -1.8041060    -1.4398659
C           2.5105205    -1.6066737    -0.3278982
C           5.6960128     1.2851946    -0.1431139
H           6.5110908     2.0032443    -0.1074130
C           4.4690293     1.5919062     0.4464341
H           4.3250529     2.5496240     0.9390553
C           3.4235237     0.6687562     0.4069789
H           2.4761859     0.9277034     0.8683065
C           3.5920398    -0.5705481    -0.2298426
C           4.8302785    -0.8636957    -0.8267126
H           4.9438903    -1.8228929    -1.3209030
C           5.8747724     0.0530991    -0.7803544
H           6.8289627    -0.1876752    -1.2412153
O           2.6902202    -2.6239413    -0.9836568
20
374_C9H10O_3-0-7-14 (120,) energy =    -424.2072201
C           1.1490302    -1.2953092     0.3265982
H           1.1359984    -0.4082041     0.9642157
H           0.9993483    -2.1625886     0.9820796
C           0.0067105    -1.2335918    -0.7009166
H           0.0971856    -0.3493598    -1.3420623
H          -0.9642137    -1.1876271    -0.1968297
H           0.0286605    -2.1212032    -1.3390670
C           2.4953430    -1.5107204    -0.3640927
C           5.7871230     1.2539728    -0.0853678
H           6.6290181     1.9389258    -0.0281154
C           4.5857840     1.5690450     0.5502816
H           4.4888743     2.4998633     1.1023785
C           3.5045594     0.6897209     0.4804039
H           2.5804653     0.9567095     0.9816557
C           3.6115196    -0.5155781    -0.2307408
C           4.8271762    -0.8192402    -0.8688496
H           4.8952983    -1.7528614    -1.4172216
C           5.9055375     0.0552574    -0.7961420
H           6.8396800    -0.1929687    -1.2927131
O           2.6501989    -2.5170431    -1.0430694
20
374_C9H10O_3-0-7-14 (135,) energy =    -424.2076564
C           1.0706434    -1.1151149     0.2503225
H           1.0083447    -0.0842600     0.6083618
H           0.9725565    -1.7623024     1.1335069
C          -0.0745632    -1.4017048    -0.7304447
H          -0.0375860    -0.7194900    -1.5870639
H          -1.0446988    -1.2759205    -0.2387054
H          -0.0007401    -2.4238496    -1.1099193
C           2.4326584    -1.4219531    -0.3747572
C           5.8190258     1.2189777    -0.0393982
H           6.6836963     1.8735173     0.0322046
C           4.6640466     1.5062457     0.6888936
H           4.6280411     2.3815081     1.3317453
C           3.5505599     0.6708130     0.5937738
H           2.6655900     0.9093534     1.1741166
C           3.5819789    -0.4668637    -0.2275446
C           4.7554358    -0.7499785    -0.9480018
H           4.7690377    -1.6370881    -1.5724345
C           5.8622731     0.0870425    -0.8595910
H           6.7609590    -0.1402274    -1.4266534
O           2.5756755    -2.4561125    -1.0126318
20
374_C9H10O_3-0-7-14 (150,) energy =    -424.2086527
C           1.0594025    -1.0084150     0.1558461
H           0.9641159     0.0712317     0.3102185
H           1.0524151    -1.4618946     1.1586765
C          -0.1200242    -1.5287604    -0.6706929
H          -0.1657025    -1.0274408    -1.6434465
H          -1.0655027    -1.3474431    -0.1490873
H          -0.0182509    -2.6009002    -0.8550914
C           2.4075484    -1.3424471    -0.4840736
C           5.8594988     1.1802334     0.0335861
H           6.7400127     1.8062708     0.1519250
C           4.7015354     1.4586965     0.7611560
H           4.6795645     2.2985677     1.4501887
C           3.5682402     0.6601810     0.6049971
H           2.6792260     0.8885957     1.1838935
C           3.5832987    -0.4312968    -0.2770776
C           4.7586846    -0.7079124    -0.9953607
H           4.7587018    -1.5603422    -1.6666185
C           5.8855145     0.0937654    -0.8463717
H           6.7864864    -0.1263179    -1.4126256
O           2.5238675    -2.3464321    -1.1724108
20
374_C9H10O_3-0-7-14 (165,) energy =    -424.2097723
C           1.0510193    -0.9070238     0.0734143
H           0.9021267     0.1797753     0.0465697
H           1.1348101    -1.1673502     1.1396274
C          -0.1378682    -1.6233921    -0.5666401
H          -0.2462418    -1.3366381    -1.6174081
H          -1.0654112    -1.3697358    -0.0428042
H          -0.0038934    -2.7078277    -0.5369550
C           2.3800659    -1.2495049    -0.5967418
C           5.8914988     1.1378038     0.1151187
H           6.7863486     1.7312088     0.2834841
C           4.7241155     1.4169549     0.8277825
H           4.7089376     2.2252854     1.5537411
C           3.5736749     0.6590602     0.6089451
H           2.6747863     0.8865126     1.1732985
C           3.5807713    -0.3901732    -0.3228992
C           4.7630718    -0.6666175    -1.0282959
H           4.7546938    -1.4850761    -1.7406825
C           5.9085161     0.0935296    -0.8145317
H           6.8165898    -0.1259710    -1.3695528
O           2.4641609    -2.2039455    -1.3557774
20
374_C9H10O_3-0-7-14 (180,) energy =    -424.2102762
C           1.0250101    -0.8214628     0.0016682
H           0.7865505     0.2409979    -0.1504897
H           1.1943069    -0.9302394     1.0824528
C          -0.1341150    -1.7048797    -0.4555467
H          -0.3218977    -1.5814284    -1.5260172
H          -1.0485748    -1.4491563     0.0899199
H           0.0880570    -2.7622394    -0.2849025
C           2.3320346    -1.1288297    -0.7243304
C           5.9133148     1.0782023     0.1904006
H           6.8252261     1.6268960     0.4106125
C           4.7334801     1.3846788     0.8706597
H           4.7252070     2.1712327     1.6202369
C           3.5622331     0.6814277     0.5893496
H           2.6529245     0.9314376     1.1267918
C           3.5595264    -0.3364977    -0.3765329
C           4.7521128    -0.6358436    -1.0543027
H           4.7333001    -1.4255338    -1.7982268
C           5.9205293     0.0655219    -0.7736490
H           6.8380876    -0.1743277    -1.3040767
O           2.3810436    -2.0043669    -1.5756539
