24
227_C9H12N2O_1-0-10-18 (-165,) energy =    -534.9272291
C           1.4192377    -1.3637356    -0.2489812
N           0.1402972    -1.3968983    -0.7863720
C          -0.6982713    -0.2245336    -0.9673065
H          -1.5335292    -0.4910286    -1.6202449
H          -0.1503756     0.5836346    -1.4652553
H          -1.1228411     0.1573580    -0.0245166
C          -0.4983496    -2.6965942    -0.9425849
H          -0.9184080    -2.7931060    -1.9511080
H          -1.3087106    -2.8367011    -0.2125872
H           0.2559801    -3.4669271    -0.7916146
N           1.8625409    -0.0975764     0.1130766
H           1.1988081     0.6605590     0.0760947
C           5.7489556     1.2955009     0.9950525
H           6.7418564     1.6724887     1.2227828
C           5.5386627    -0.0674072     0.7824630
H           6.3738583    -0.7603877     0.8455823
C           4.2710578    -0.5727230     0.4924344
H           4.1104061    -1.6299621     0.3380125
C           3.1816897     0.3082815     0.4047701
C           3.3916369     1.6808395     0.6201071
H           2.5513805     2.3706674     0.5555430
C           4.6622657     2.1676479     0.9132066
H           4.7997264     3.2335224     1.0755459
O           2.1020818    -2.3759460    -0.1198508
24
227_C9H12N2O_1-0-10-18 (-150,) energy =    -534.9257979
C           1.3880400    -1.3992584    -0.1074485
N           0.1660409    -1.3887115    -0.7627676
C          -0.6284804    -0.1949046    -0.9964807
H          -1.3700474    -0.4160702    -1.7691597
H          -0.0088980     0.6254848    -1.3740304
H          -1.1740281     0.1483227    -0.1022534
C          -0.4847610    -2.6682649    -1.0115858
H          -0.7971955    -2.7356010    -2.0607319
H          -1.3719933    -2.7976151    -0.3750037
H           0.2298255    -3.4613422    -0.7979541
N           1.8104589    -0.1588407     0.3671062
H           1.1418124     0.5958589     0.3295333
C           5.7430786     1.3039953     0.8477656
H           6.7479324     1.6966956     0.9738326
C           5.5297604    -0.0677305     0.7048165
H           6.3746503    -0.7515433     0.7213433
C           4.2464980    -0.5919767     0.5489570
H           4.0820722    -1.6560591     0.4530387
C           3.1456173     0.2778820     0.5197815
C           3.3576839     1.6584566     0.6669283
H           2.5077787     2.3391435     0.6501707
C           4.6443235     2.1644853     0.8312327
H           4.7846608     3.2365308     0.9425046
O           2.0513532    -2.4231572     0.0261687
24
227_C9H12N2O_1-0-10-18 (-135,) energy =    -534.9232862
C           1.3696010    -1.4098480     0.0707558
N           0.2254931    -1.3429144    -0.7053493
C          -0.4672902    -0.1134597    -1.0524272
H          -1.0596723    -0.2902357    -1.9552761
H           0.2424377     0.6859902    -1.2844726
H          -1.1575440     0.2338133    -0.2664856
C          -0.4473118    -2.5893426    -1.0468460
H          -0.5838443    -2.6629665    -2.1329269
H          -1.4344079    -2.6518070    -0.5673150
H           0.1738482    -3.4169234    -0.7081718
N           1.7885769    -0.1923888     0.6219688
H           1.1108925     0.5566187     0.6052140
C           5.7227477     1.3468633     0.6915594
H           6.7287821     1.7557968     0.7126231
C           5.5186836    -0.0291780     0.5753618
H           6.3717946    -0.6994844     0.5077554
C           4.2345474    -0.5727905     0.5556257
H           4.0773798    -1.6408888     0.4861474
C           3.1231372     0.2797580     0.6351281
C           3.3253743     1.6634239     0.7572521
H           2.4670126     2.3298433     0.8275834
C           4.6146146     2.1897789     0.7873780
H           4.7488383     3.2642628     0.8815421
O           1.9881741    -2.4548784     0.2417226
24
227_C9H12N2O_1-0-10-18 (-120,) energy =    -534.9199158
C           1.3137437    -1.4783349     0.2531282
N           0.2698122    -1.3545199    -0.6417954
C          -0.2911143    -0.0920759    -1.0956096
H          -0.7015372    -0.2331358    -2.1007398
H           0.4818871     0.6770118    -1.1652790
H          -1.1076402     0.2727515    -0.4522652
C          -0.4098813    -2.5644407    -1.0860564
H          -0.3557811    -2.6551982    -2.1783582
H          -1.4679201    -2.5501257    -0.7905243
H           0.0848043    -3.4221069    -0.6330011
N           1.7364332    -0.2769592     0.8609462
H           1.0429289     0.4595690     0.8689459
C           5.6249699     1.3464865     0.5289856
H           6.6203781     1.7734339     0.4480484
C           5.4349953    -0.0335954     0.4327740
H           6.2887204    -0.6886045     0.2785292
C           4.1651360    -0.5981309     0.5434944
H           4.0216340    -1.6702515     0.4933193
C           3.0522754     0.2341225     0.7366381
C           3.2405067     1.6208576     0.8393062
H           2.3821591     2.2713131     0.9999957
C           4.5176386     2.1691927     0.7387027
H           4.6421065     3.2458957     0.8205744
O           1.8662107    -2.5473654     0.4808617
24
227_C9H12N2O_1-0-10-18 (-105,) energy =    -534.9166031
C           1.0970927    -1.0743281     0.7180461
N           0.4581163    -1.3083401    -0.4667153
C           0.2081155    -0.3064524    -1.4924950
H           0.7725825    -0.5339162    -2.4069920
H           0.4980899     0.6748454    -1.1226791
H          -0.8599369    -0.2969559    -1.7464746
C           0.0085684    -2.6601740    -0.7678553
H           0.4749292    -3.0221541    -1.6933214
H          -1.0807464    -2.6762567    -0.9026740
H           0.2813593    -3.3120654     0.0604149
N           1.5059191     0.3061234     0.9106786
H           1.2119943     0.5536210     1.8532275
C           5.5780761     1.3544262     0.4105658
H           6.6178137     1.6383563     0.2774725
C           5.0087552     0.3562377    -0.3813726
H           5.6070353    -0.1455289    -1.1375793
C           3.6746940    -0.0133982    -0.2158240
H           3.2491138    -0.7963609    -0.8366615
C           2.8857235     0.6127565     0.7603122
C           3.4593551     1.6144873     1.5572310
H           2.8549713     2.1074240     2.3159247
C           4.7919482     1.9796772     1.3804723
H           5.2176836     2.7561639     2.0107573
O           1.2471744    -1.9156755     1.5913724
24
227_C9H12N2O_1-0-10-18 (-90,) energy =    -534.9191894
C           1.0140706    -1.0885521     0.8289363
N           0.5132323    -1.2791786    -0.4297858
C           0.3828663    -0.2388621    -1.4384987
H           1.0611760    -0.4158087    -2.2840834
H           0.6052819     0.7310972    -0.9975879
H          -0.6453335    -0.2306441    -1.8228681
C           0.0319866    -2.6019642    -0.8004014
H           0.5479151    -2.9590091    -1.7010614
H          -1.0454109    -2.5717165    -1.0102108
H           0.2175966    -3.2857701     0.0264099
N           1.4966398     0.2432477     1.0894050
H           1.2905508     0.4245970     2.0686667
C           5.5033247     1.3677053     0.2971493
H           6.5261007     1.6718493     0.0953492
C           4.9198301     0.3228376    -0.4193374
H           5.4911977    -0.1977043    -1.1836390
C           3.6073457    -0.0762567    -0.1649820
H           3.1760739    -0.9028777    -0.7204103
C           2.8538091     0.5739791     0.8228512
C           3.4419165     1.6254407     1.5432653
H           2.8622269     2.1387046     2.3074415
C           4.7532200     2.0139211     1.2823363
H           5.1899396     2.8278415     1.8552467
O           0.9773568    -1.9335644     1.7127295
24
227_C9H12N2O_1-0-10-18 (-75,) energy =    -534.9214853
C           0.9867051    -1.0978222     0.9465119
N           0.5963237    -1.2412518    -0.3592695
C           0.5453534    -0.1611288    -1.3325151
H           1.2942269    -0.2938732    -2.1246166
H           0.7179800     0.7935472    -0.8381486
H          -0.4476281    -0.1422195    -1.7998696
C           0.0654581    -2.5259041    -0.7901383
H           0.5575821    -2.8462161    -1.7169802
H          -1.0147374    -2.4575448    -0.9788459
H           0.2405067    -3.2599855    -0.0050055
N           1.5591641     0.1663309     1.2774254
H           1.4228249     0.2924498     2.2761809
C           5.4580069     1.4264074     0.2052688
H           6.4546480     1.7642026    -0.0629112
C           4.8999449     0.3074896    -0.4119780
H           5.4656851    -0.2386814    -1.1624505
C           3.6218485    -0.1380187    -0.0710299
H           3.2144215    -1.0259355    -0.5425811
C           2.8757422     0.5459921     0.8989002
C           3.4379143     1.6745114     1.5175557
H           2.8597323     2.2140658     2.2642303
C           4.7174168     2.1038898     1.1771410
H           5.1349985     2.9766045     1.6724711
O           0.7866616    -1.9414213     1.8119271
24
227_C9H12N2O_1-0-10-18 (-60,) energy =    -534.9229403
C           0.8828541    -1.1991364     0.9305931
N           0.6287976    -1.3471132    -0.4115913
C           0.6066001    -0.2491290    -1.3677823
H           1.3613244    -0.3822181    -2.1534191
H           0.7912962     0.6966183    -0.8605885
H          -0.3815428    -0.2012131    -1.8445467
C           0.0211605    -2.5936877    -0.8545113
H           0.4520076    -2.8905251    -1.8178286
H          -1.0659620    -2.4859814    -0.9783727
H           0.2101900    -3.3665105    -0.1106962
N           1.5386563    -0.0059023     1.3149518
H           1.4137924     0.1032707     2.3158167
C           5.3478858     1.3981715     0.1167102
H           6.3238137     1.7712549    -0.1795759
C           4.8330967     0.2336717    -0.4524566
H           5.4129957    -0.3126831    -1.1919007
C           3.5827556    -0.2583802    -0.0749661
H           3.2081325    -1.1800063    -0.5065062
C           2.8187255     0.4274194     0.8798242
C           3.3370045     1.6019377     1.4494868
H           2.7435936     2.1412199     2.1841024
C           4.5915712     2.0757981     1.0760731
H           4.9756823     2.9838911     1.5333839
O           0.5189441    -2.0067549     1.7783278
24
227_C9H12N2O_1-0-10-18 (-45,) energy =    -534.9233684
C           0.8334823    -1.1999708     0.9289073
N           0.6982771    -1.3782583    -0.4328007
C           0.6757521    -0.2733963    -1.3853600
H           1.3546923    -0.4635834    -2.2254747
H           0.9723550     0.6562054    -0.9032121
H          -0.3404375    -0.1466214    -1.7852607
C          -0.0042479    -2.5801300    -0.8643133
H           0.3515655    -2.8624515    -1.8611413
H          -1.0915548    -2.4216204    -0.9117236
H           0.1938166    -3.3878406    -0.1606353
N           1.5811396    -0.0904025     1.3575708
H           1.4375938     0.0343862     2.3525995
C           5.3137499     1.4356857     0.0834461
H           6.2726018     1.8384314    -0.2293826
C           4.8287854     0.2508918    -0.4713025
H           5.4158091    -0.2812206    -1.2154985
C           3.6016489    -0.2792730    -0.0723709
H           3.2473586    -1.2133048    -0.4934970
C           2.8279293     0.3896721     0.8877833
C           3.3160361     1.5836284     1.4432494
H           2.7172180     2.1090869     2.1834703
C           4.5499945     2.0946494     1.0491715
H           4.9107366     3.0178187     1.4950663
O           0.3184144    -1.9460318     1.7548592
24
227_C9H12N2O_1-0-10-18 (-30,) energy =    -534.9228896
C           0.7720542    -1.1824162     0.8718138
N           0.7384783    -1.3973962    -0.4983285
C           0.7248766    -0.2860572    -1.4486292
H           1.2747708    -0.5584054    -2.3566743
H           1.1877722     0.6009514    -1.0213078
H          -0.3086243    -0.0368298    -1.7332284
C          -0.0496937    -2.5487705    -0.9272142
H           0.2790104    -2.8435131    -1.9293689
H          -1.1255969    -2.3226881    -0.9606971
H           0.1035622    -3.3749573    -0.2336354
N           1.6130951    -0.1739010     1.3511184
H           1.4259589    -0.0118213     2.3323520
C           5.2953063     1.4500867     0.0657472
H           6.2441782     1.8752120    -0.2479392
C           4.8370650     0.2542500    -0.4896536
H           5.4359830    -0.2629476    -1.2348476
C           3.6240654    -0.3049595    -0.0894723
H           3.2864296    -1.2452704    -0.5099858
C           2.8351374     0.3471169     0.8710342
C           3.2965425     1.5508650     1.4277705
H           2.6873778     2.0611282     2.1701994
C           4.5184223     2.0906508     1.0327323
H           4.8583004     3.0214697     1.4790374
O           0.1168869    -1.8481126     1.6664423
24
227_C9H12N2O_1-0-10-18 (-15,) energy =    -534.9217062
C           0.7503029    -1.1799486     0.8834712
N           0.7633647    -1.4095754    -0.4894625
C           0.7868000    -0.2935619    -1.4367541
H           1.3456915    -0.5730146    -2.3370980
H           1.2606651     0.5835624    -1.0007554
H          -0.2369635    -0.0221121    -1.7364005
C          -0.0770833    -2.5202897    -0.9287868
H           0.2495665    -2.8279777    -1.9277616
H          -1.1406533    -2.2436154    -0.9738898
H           0.0285249    -3.3556664    -0.2370959
N           1.6814126    -0.2821840     1.4045393
H           1.4654710    -0.0757388     2.3709559
C           5.2610653     1.4848344     0.0315623
H           6.1866850     1.9430330    -0.3043663
C           4.8433521     0.2630427    -0.5001628
H           5.4503329    -0.2402012    -1.2483430
C           3.6619552    -0.3384661    -0.0698941
H           3.3537696    -1.2979831    -0.4694541
C           2.8621930     0.2968519     0.8934323
C           3.2834890     1.5247288     1.4275079
H           2.6674978     2.0201189     2.1743869
C           4.4763373     2.1073429     1.0036266
H           4.7867407     3.0569822     1.4312881
O           0.0030322    -1.7770112     1.6509709
24
227_C9H12N2O_1-0-10-18 (0,) energy =    -534.9199247
C           1.3691724    -0.9398477    -1.6626921
N           0.7726690    -1.4556996    -0.5094623
C           0.2901822    -0.5408911     0.5300622
H           0.2962009    -1.0470331     1.5016919
H          -0.7400247    -0.2162082     0.3161940
H           0.9215669     0.3423181     0.6043611
C          -0.1599910    -2.5521588    -0.7667658
H          -1.1087141    -2.2019487    -1.1986577
H          -0.3676164    -3.0550016     0.1834285
H           0.2889221    -3.2618308    -1.4619017
N           2.4747392    -0.1026899    -1.5142756
H           2.6993036     0.3269420    -2.4026082
C           4.7380721     1.3860466     1.7220827
H           5.3350914     1.7720702     2.5431501
C           4.2333936     0.0841261     1.7667331
H           4.4455158    -0.5518755     2.6222550
C           3.4757718    -0.4247009     0.7139548
H           3.1032591    -1.4426749     0.7394979
C           3.1876338     0.3839955    -0.3973487
C           3.6968479     1.6904251    -0.4421428
H           3.4796491     2.3186898    -1.3028965
C           4.4711645     2.1824059     0.6077616
H           4.8588073     3.1962538     0.5542455
O           1.0295923    -1.2734627    -2.7921696
24
227_C9H12N2O_1-0-10-18 (15,) energy =    -534.9217102
C           1.3757733    -0.9492598    -1.6554933
N           0.7538013    -1.4422127    -0.5102092
C           0.2382282    -0.5221752     0.5061840
H           0.2379858    -1.0132569     1.4855391
H          -0.7943954    -0.2209994     0.2711502
H           0.8520411     0.3735758     0.5759700
C          -0.1280887    -2.5827605    -0.7485855
H          -1.0868832    -2.2813748    -1.1951127
H          -0.3236208    -3.0740502     0.2101991
H           0.3563827    -3.2858295    -1.4259322
N           2.3843574    -0.0003696    -1.4954017
H           2.6394841     0.3938958    -2.3913979
C           4.7853358     1.3502993     1.7034029
H           5.4153508     1.7046755     2.5139885
C           4.2301240     0.0697699     1.7469861
H           4.4350291    -0.5828070     2.5917364
C           3.4274445    -0.3987140     0.7082323
H           3.0163143    -1.4014069     0.7365933
C           3.1486008     0.4300286    -0.3902927
C           3.7073553     1.7171358    -0.4329680
H           3.4944613     2.3626791    -1.2819041
C           4.5237617     2.1675994     0.6025802
H           4.9491684     3.1662323     0.5494162
O           1.1157692    -1.3592214    -2.7814590
24
227_C9H12N2O_1-0-10-18 (30,) energy =    -534.9228896
C           1.4068179    -0.9719835    -1.6365830
N           0.7315801    -1.4332413    -0.5159006
C           0.1944437    -0.5150268     0.4874423
H           0.2552830    -0.9665875     1.4841844
H          -0.8615990    -0.2893209     0.2751555
H           0.7504412     0.4200389     0.5008398
C          -0.0934360    -2.6179641    -0.7317726
H          -1.0643518    -2.3676276    -1.1839411
H          -0.2699424    -3.1017118     0.2346991
H           0.4248728    -3.3075133    -1.3973562
N           2.3110831     0.0799261    -1.4634482
H           2.6094645     0.4249776    -2.3667850
C           4.8135837     1.3224809     1.7054239
H           5.4664861     1.6524138     2.5081391
C           4.2189824     0.0603571     1.7498492
H           4.4160381    -0.6034972     2.5876900
C           3.3849081    -0.3770362     0.7216293
H           2.9450029    -1.3672245     0.7536469
C           3.1169731     0.4648650    -0.3690575
C           3.7144987     1.7349059    -0.4117073
H           3.5075755     2.3917665    -1.2533535
C           4.5600038     2.1538740     0.6129884
H           5.0148606     3.1393900     0.5582811
O           1.2568671    -1.4595199    -2.7517752
24
227_C9H12N2O_1-0-10-18 (45,) energy =    -534.9233684
C           1.4890835    -0.9807412    -1.6588950
N           0.7267705    -1.4011636    -0.5881755
C           0.1811287    -0.4894445     0.4116447
H           0.3824498    -0.8519539     1.4270168
H          -0.9077258    -0.4057333     0.2850654
H           0.6154573     0.5028253     0.3050683
C          -0.0215048    -2.6387189    -0.7692307
H          -1.0049488    -2.4569654    -1.2268473
H          -0.1725041    -3.1101548     0.2079706
H           0.5397218    -3.3096897    -1.4185470
N           2.2811183     0.1641605    -1.4697741
H           2.6265471     0.4737115    -2.3703945
C           4.8390972     1.3109846     1.6966530
H           5.5025098     1.6187686     2.4995328
C           4.2207639     0.0606819     1.7295281
H           4.4088122    -0.6172626     2.5581399
C           3.3719469    -0.3479554     0.7006395
H           2.9167963    -1.3315549     0.7262224
C           3.1161100     0.5099692    -0.3794248
C           3.7369751     1.7693056    -0.4097852
H           3.5371076     2.4403601    -1.2418646
C           4.5952660     2.1598054     0.6148807
H           5.0686393     3.1370653     0.5692767
O           1.4816602    -1.5459686    -2.7472705
24
227_C9H12N2O_1-0-10-18 (60,) energy =    -534.9229403
C           1.5330209    -0.9811864    -1.6363049
N           0.6742987    -1.3644564    -0.6345059
C           0.1276211    -0.4601709     0.3673796
H           0.4179331    -0.7590087     1.3827425
H          -0.9688435    -0.4689299     0.3064265
H           0.4751313     0.5561264     0.1880130
C           0.0062623    -2.6510528    -0.7677202
H          -1.0106735    -2.5332345    -1.1686418
H          -0.0621212    -3.1329961     0.2145098
H           0.5767631    -3.2801073    -1.4496786
N           2.2182823     0.2407309    -1.4389484
H           2.5838102     0.5354163    -2.3382759
C           4.8872524     1.2791297     1.6780626
H           5.5753742     1.5602544     2.4698132
C           4.2346557     0.0470765     1.7124309
H           4.4196323    -0.6437631     2.5310201
C           3.3528956    -0.3273017     0.6973908
H           2.8741921    -1.2999711     0.7242411
C           3.1019197     0.5458918    -0.3704251
C           3.7571935     1.7877675    -0.4017697
H           3.5585088     2.4712019    -1.2240002
C           4.6457258     2.1448858     0.6086243
H           5.1459523     3.1086789     0.5618930
O           1.6720458    -1.6077287    -2.6810294
24
227_C9H12N2O_1-0-10-18 (75,) energy =    -534.9214853
C           1.6253025    -0.8820393    -1.5819212
N           0.6645819    -1.2498143    -0.6764973
C           0.0856277    -0.3652836     0.3229466
H           0.3676840    -0.6647818     1.3410834
H          -1.0087634    -0.4006607     0.2464825
H           0.4158692     0.6578200     0.1503080
C           0.0718126    -2.5740620    -0.7895892
H          -0.9678521    -2.5070000    -1.1384530
H           0.0760212    -3.0743551     0.1868895
H           0.6475714    -3.1570245    -1.5069509
N           2.2076176     0.4024250    -1.3666172
H           2.5610645     0.7137320    -2.2667116
C           5.0244243     1.3195880     1.6603777
H           5.7463419     1.5705316     2.4318583
C           4.3080698     0.1248849     1.7230266
H           4.4753501    -0.5673493     2.5442469
C           3.3816093    -0.2095728     0.7340561
H           2.8529095    -1.1554106     0.7852512
C           3.1536955     0.6640714    -0.3383764
C           3.8737318     1.8683359    -0.3985575
H           3.6941490     2.5537713    -1.2237028
C           4.8026683     2.1869971     0.5878027
H           5.3526163     3.1219337     0.5184648
O           1.9183541    -1.5459282    -2.5688319
24
227_C9H12N2O_1-0-10-18 (90,) energy =    -534.9191894
C           1.5920952    -0.8953270    -1.4662612
N           0.5603029    -1.2973516    -0.6629300
C          -0.1026785    -0.4559193     0.3215503
H           0.0946788    -0.8064180     1.3436207
H          -1.1873018    -0.4854636     0.1550521
H           0.2444549     0.5708166     0.2215267
C           0.0422673    -2.6496152    -0.8103752
H          -1.0027629    -2.6239717    -1.1464916
H           0.0821455    -3.1819623     0.1487223
H           0.6442353    -3.1758685    -1.5495300
N           2.0577701     0.4455524    -1.2221470
H           2.3374461     0.8098029    -2.1295715
C           5.1118640     1.2773074     1.5932280
H           5.8906388     1.5065289     2.3145218
C           4.3209595     0.1380113     1.7416844
H           4.4849214    -0.5317351     2.5820046
C           3.3199194    -0.1656097     0.8184727
H           2.7262483    -1.0658198     0.9408431
C           3.0962071     0.6783403    -0.2788626
C           3.8926329     1.8246892    -0.4272969
H           3.7217897     2.4875345    -1.2728110
C           4.8901270     2.1167125     0.4991182
H           5.4977600     3.0074684     0.3621771
O           2.0369044    -1.5624193    -2.3901757
24
227_C9H12N2O_1-0-10-18 (105,) energy =    -534.9166031
C           1.6105077    -0.9043428    -1.3285140
N           0.4961385    -1.3310061    -0.6630422
C          -0.2773455    -0.5266227     0.2714060
H          -0.2096185    -0.9357310     1.2886135
H          -1.3341787    -0.5297516    -0.0259578
H           0.0939756     0.4960676     0.2670003
C           0.0410099    -2.7000845    -0.8598058
H          -0.9755275    -2.7058266    -1.2741248
H           0.0258939    -3.2402377     0.0957125
H           0.7179680    -3.1975098    -1.5524127
N           1.9760743     0.4742674    -1.0534027
H           2.1572213     0.8995662    -1.9602389
C           5.2325971     1.2826563     1.5298246
H           6.0604844     1.5040539     2.1968850
C           4.4149613     0.1749193     1.7579977
H           4.6052151    -0.4757761     2.6076778
C           3.3505352    -0.1153487     0.9056495
H           2.7277136    -0.9848453     1.0944799
C           3.0916726     0.7039563    -0.2030048
C           3.9152569     1.8159492    -0.4327397
H           3.7214010     2.4586184    -1.2890562
C           4.9732795     2.0998414     0.4277277
H           5.6011771     2.9647021     0.2297335
O           2.2134306    -1.5757399    -2.1524064
24
227_C9H12N2O_1-0-10-18 (120,) energy =    -534.9199158
C           1.6011214    -1.3934125    -0.8960280
N           0.2500658    -1.4024309    -0.6121609
C          -0.5361859    -0.2272867    -0.2727606
H          -1.3699239    -0.5369755     0.3656807
H          -0.9632545     0.2751039    -1.1553259
H           0.0592161     0.4909605     0.2960077
C          -0.4838922    -2.6509540    -0.7726334
H          -1.2679406    -2.5489596    -1.5354277
H          -0.9564265    -2.9420264     0.1740852
H           0.2192490    -3.4264151    -1.0723286
N           2.1895176    -0.1151156    -1.0016420
H           1.5417039     0.6321586    -1.2147308
C           5.3310592     1.2950509     1.4496014
H           6.1364970     1.6679396     2.0756176
C           5.2032728    -0.0725103     1.1977710
H           5.9158738    -0.7716161     1.6280343
C           4.1805727    -0.5663631     0.3892574
H           4.0966865    -1.6243856     0.1745361
C           3.2491697     0.3222748    -0.1686187
C           3.3781269     1.6976131     0.0780021
H           2.6648696     2.3935877    -0.3608137
C           4.4130497     2.1771661     0.8785136
H           4.4952624     3.2461049     1.0576635
O           2.2593628    -2.4196930    -1.0116879
24
227_C9H12N2O_1-0-10-18 (135,) energy =    -534.9232862
C           1.5580372    -1.3613440    -0.7006698
N           0.1800258    -1.4013052    -0.5770929
C          -0.6681948    -0.2348229    -0.3987050
H          -1.6097022    -0.5551086     0.0576747
H          -0.9151355     0.2725113    -1.3454803
H          -0.2081083     0.4854519     0.2840852
C          -0.4962331    -2.6670830    -0.8288021
H          -1.1250996    -2.6090027    -1.7284475
H          -1.1334665    -2.9341872     0.0233843
H           0.2606617    -3.4379517    -0.9640883
N           2.1149491    -0.0774750    -0.7566652
H           1.4682687     0.6770125    -0.9386085
C           5.4947314     1.3220932     1.3575638
H           6.3596523     1.6955925     1.8981035
C           5.3447203    -0.0447244     1.1168549
H           6.0993431    -0.7429926     1.4699107
C           4.2454909    -0.5414714     0.4169716
H           4.1401044    -1.5986555     0.2129670
C           3.2594923     0.3462397    -0.0392961
C           3.4103107     1.7216906     0.1967932
H           2.6526222     2.4167680    -0.1618465
C           4.5200512     2.2032412     0.8872139
H           4.6168842     3.2719510     1.0600807
O           2.2453376    -2.3765344    -0.7315393
24
227_C9H12N2O_1-0-10-18 (150,) energy =    -534.9257977
C           1.4875238    -1.3840239    -0.5360810
N           0.1028125    -1.4552069    -0.5622685
C          -0.7778919    -0.2997958    -0.5402212
H          -1.7848614    -0.6346931    -0.2761748
H          -0.8445901     0.2169043    -1.5116370
H          -0.4692501     0.4187878     0.2264937
C          -0.5067988    -2.7371862    -0.8905213
H          -0.9620435    -2.7208854    -1.8913920
H          -1.2856452    -2.9831081    -0.1586336
H           0.2685102    -3.5008819    -0.8607519
N           2.0087849    -0.0916630    -0.5201802
H           1.3593674     0.6643940    -0.6772901
C           5.5911415     1.3076270     1.2250031
H           6.5068525     1.6844246     1.6714755
C           5.4199515    -0.0594192     1.0026633
H           6.2091431    -0.7552520     1.2759848
C           4.2543516    -0.5619435     0.4240853
H           4.1297557    -1.6197045     0.2393657
C           3.2236761     0.3225366     0.0707688
C           3.3952595     1.6990858     0.2904491
H           2.6017114     2.3918901     0.0143064
C           4.5689645     2.1851701     0.8602265
H           4.6794379     3.2543276     1.0216316
O           2.1949814    -2.3865507    -0.5105850
24
227_C9H12N2O_1-0-10-18 (165,) energy =    -534.9272292
C           1.4447528    -1.3763004    -0.3937347
N           0.0697030    -1.4666546    -0.5573740
C          -0.8221779    -0.3209046    -0.6043532
H          -1.8506403    -0.6753507    -0.4965436
H          -0.7619624     0.2397870    -1.5514264
H          -0.6330416     0.3651111     0.2292592
C          -0.4840441    -2.7519437    -0.9610538
H          -0.8301682    -2.7308682    -2.0046068
H          -1.3325388    -3.0168425    -0.3186201
H           0.2947089    -3.5056804    -0.8579301
N           1.9290313    -0.0800608    -0.2674363
H           1.2840119     0.6792209    -0.4227156
C           5.6671775     1.3262611     1.1005799
H           6.6220545     1.7067279     1.4517052
C           5.4647998    -0.0450446     0.9409062
H           6.2683835    -0.7409635     1.1682978
C           4.2475436    -0.5542267     0.4877952
H           4.0977564    -1.6161369     0.3562017
C           3.1982602     0.3300467     0.1917628
C           3.4010580     1.7113501     0.3506170
H           2.5925398     2.4040641     0.1214739
C           4.6235724     2.2028157     0.7992900
H           4.7563290     3.2754028     0.9144813
O           2.1661155    -2.3689702    -0.3518111
24
227_C9H12N2O_1-0-10-18 (180,) energy =    -534.9275630
C           1.4539918    -1.3452883    -0.3756481
N           0.1307936    -1.3991123    -0.7894698
C          -0.7242979    -0.2324085    -0.9250979
H          -1.6446207    -0.5319134    -1.4322619
H          -0.2554056     0.5395661    -1.5477237
H          -1.0080226     0.2117393     0.0425041
C          -0.5039680    -2.7069884    -0.8748403
H          -1.0145390    -2.8190508    -1.8390720
H          -1.2405781    -2.8495765    -0.0711670
H           0.2702367    -3.4671727    -0.7858745
N           1.9337226    -0.0621102    -0.1451411
H           1.2739558     0.6992561    -0.1840899
C           5.7379162     1.2666636     1.1140214
H           6.7101137     1.6280415     1.4366466
C           5.5411753    -0.0854363     0.8313611
H           6.3664647    -0.7855461     0.9338568
C           4.3009623    -0.5704922     0.4154312
H           4.1523207    -1.6189135     0.2017448
C           3.2236079     0.3192241     0.2792055
C           3.4206816     1.6813491     0.5630513
H           2.5904160     2.3783646     0.4585096
C           4.6649874     2.1487247     0.9758932
H           4.7922543     3.2067263     1.1898232
O           2.1404517    -2.3543737    -0.2404522
