24
227_C9H12N2O_10-0-1-2 (-165,) energy =    -534.9274912
C           1.1859752    -0.9210584     0.3275641
N           0.1208302    -1.3459142    -0.4567272
C          -1.0768298    -1.8126325     0.2288084
H          -1.8763056    -1.0572888     0.2045178
H          -0.8172691    -2.0231976     1.2649141
H          -1.4490954    -2.7280853    -0.2459178
C          -0.0118479    -1.0458724    -1.8717454
H          -0.2940786     0.0010448    -2.0725090
H          -0.7939586    -1.6841886    -2.2914813
H           0.9119838    -1.2775648    -2.4134953
N           2.1526829    -0.1940652    -0.3546151
H           1.9466559     0.0894429    -1.2999566
C           5.8668762     1.3385432     0.9406986
H           6.8262166     1.7396740     1.2547105
C           5.1040537     0.5587819     1.8106839
H           5.4707991     0.3494246     2.8123802
C           3.8690190     0.0348950     1.4277327
H           3.2783630    -0.5618739     2.1074713
C           3.3799795     0.2961436     0.1380663
C           4.1473049     1.0811024    -0.7392175
H           3.7752979     1.2875447    -1.7417447
C           5.3772014     1.5965677    -0.3406595
H           5.9520415     2.2013566    -1.0371483
O           1.2598282    -1.1804727     1.5251435
24
227_C9H12N2O_10-0-1-2 (-150,) energy =    -534.9262096
C           1.2190148    -1.0034653     0.3223995
N           0.1585397    -1.4493335    -0.4671000
C          -1.1055322    -1.7016326     0.2156808
H          -1.7848673    -0.8384551     0.1387944
H          -0.8961711    -1.9020603     1.2653905
H          -1.6014158    -2.5738068    -0.2251975
C           0.0511987    -1.1565171    -1.8860902
H          -0.2648901    -0.1203779    -2.1008540
H          -0.6964453    -1.8244799    -2.3241572
H           0.9985797    -1.3566659    -2.3961903
N           2.1281473    -0.1853740    -0.3318536
H           1.8873582     0.1359852    -1.2569078
C           5.8508093     1.3529809     0.9302351
H           6.8110453     1.7573492     1.2372376
C           5.1249053     0.5223686     1.7846649
H           5.5211929     0.2766094     2.7666121
C           3.8886455    -0.0053336     1.4111188
H           3.3250122    -0.6398559     2.0796890
C           3.3628939     0.3018922     0.1464700
C           4.0927388     1.1377067    -0.7152838
H           3.6913283     1.3797856    -1.6982604
C           5.3233167     1.6583498    -0.3254757
H           5.8694334     2.3033106    -1.0088776
O           1.3138372    -1.3041655     1.5076370
24
227_C9H12N2O_10-0-1-2 (-135,) energy =    -534.9233883
C           1.2582497    -1.1039472     0.3170032
N           0.1815474    -1.5439420    -0.4681886
C          -1.1163478    -1.5745402     0.2018870
H          -1.6519090    -0.6177142     0.0916130
H          -0.9564958    -1.7792882     1.2600258
H          -1.7368600    -2.3703260    -0.2246253
C           0.1113549    -1.2610925    -1.8925045
H          -0.1876165    -0.2222776    -2.1260707
H          -0.6354861    -1.9224364    -2.3431023
H           1.0698593    -1.4766383    -2.3733234
N           2.1032549    -0.1974299    -0.3020705
H           1.8271028     0.1533558    -1.2068521
C           5.8229468     1.3782501     0.9207987
H           6.7810680     1.7938701     1.2192495
C           5.1387804     0.4993219     1.7612564
H           5.5653902     0.2271548     2.7232951
C           3.9054333    -0.0426709     1.3987086
H           3.3730193    -0.7144354     2.0565977
C           3.3421266     0.2978248     0.1591845
C           4.0295423     1.1820442    -0.6885566
H           3.5978196     1.4499425    -1.6517414
C           5.2569111     1.7178450    -0.3091309
H           5.7706711     2.4007808    -0.9805690
O           1.3908755    -1.4663757     1.4795775
24
227_C9H12N2O_10-0-1-2 (-120,) energy =    -534.9194371
C           1.2957031    -1.2174175     0.3133749
N           0.1840477    -1.6319112    -0.4552901
C          -1.1093179    -1.4300391     0.1980954
H          -1.4813667    -0.4005983     0.0622072
H          -1.0011697    -1.6368292     1.2633095
H          -1.8467972    -2.1228769    -0.2213363
C           0.1499203    -1.3726417    -1.8868416
H          -0.1007141    -0.3261044    -2.1483212
H          -0.6188059    -2.0082548    -2.3385531
H           1.1077751    -1.6364990    -2.3437199
N           2.0763323    -0.2327359    -0.2654414
H           1.7621557     0.1452465    -1.1473128
C           5.7897628     1.3908324     0.9121128
H           6.7450083     1.8203031     1.2000128
C           5.1528718     0.4617359     1.7356317
H           5.6141472     0.1643680     2.6738561
C           3.9237271    -0.0981351     1.3860090
H           3.4271974    -0.8098653     2.0299549
C           3.3181243     0.2750892     0.1764606
C           3.9573065     1.2096641    -0.6543920
H           3.4914642     1.5029949    -1.5939136
C           5.1805715     1.7632837    -0.2873401
H           5.6575225     2.4855782    -0.9445326
O           1.4823334    -1.6550513     1.4399121
24
227_C9H12N2O_10-0-1-2 (-105,) energy =    -534.9184005
C           1.3247213    -1.0919527    -0.1883898
N           0.0626371    -1.0009160    -0.8971686
C          -1.0281992    -0.7193713     0.0500813
H          -1.9556856    -0.5725986    -0.5128686
H          -0.8116268     0.2029457     0.5987521
H          -1.1783256    -1.5338166     0.7766690
C          -0.2026555    -2.2436233    -1.6358093
H          -1.1272045    -2.1143330    -2.2075675
H          -0.3059852    -3.1183994    -0.9770974
H           0.6134078    -2.4320503    -2.3397675
N           2.0657816     0.0395372    -0.4065472
H           1.6291363     0.6936808    -1.0423346
C           5.8010720     1.2668935     1.1118140
H           6.7625845     1.5972145     1.4941249
C           5.2839624     0.0233774     1.4774474
H           5.8454433    -0.6211085     2.1487868
C           4.0518713    -0.4188818     0.9954239
H           3.6539033    -1.3846242     1.2749717
C           3.3185338     0.4051649     0.1285429
C           3.8354213     1.6566336    -0.2413379
H           3.2666821     2.2962179    -0.9135713
C           5.0676966     2.0815987     0.2470790
H           5.4528692     3.0533221    -0.0500929
O           1.6719637    -2.0538697     0.4774329
24
227_C9H12N2O_10-0-1-2 (-90,) energy =    -534.9202147
C           1.3839086    -1.1725084    -0.3086964
N           0.1042255    -1.0813546    -0.9623150
C          -0.9337288    -0.5758854    -0.0486225
H          -1.8529008    -0.3980055    -0.6161902
H          -0.6144554     0.3732875     0.3924650
H          -1.1550336    -1.2838667     0.7665607
C          -0.2957232    -2.3749143    -1.5301658
H          -1.2149952    -2.2263751    -2.1056932
H          -0.4712843    -3.1422856    -0.7626389
H           0.4837448    -2.7356839    -2.2059954
N           2.0775297     0.0049464    -0.4534403
H           1.6213157     0.6837274    -1.0480330
C           5.7509332     1.2923248     1.1660917
H           6.6955298     1.6394720     1.5747840
C           5.2988317    -0.0020621     1.4260203
H           5.8956930    -0.6702936     2.0413165
C           4.0901875    -0.4664106     0.9067894
H           3.7460252    -1.4728569     1.1008314
C           3.3110771     0.3878447     0.1116526
C           3.7627303     1.6907538    -0.1516847
H           3.1593599     2.3548024    -0.7678179
C           4.9736050     2.1363191     0.3707862
H           5.3071005     3.1479147     0.1552961
O           1.8071161    -2.1796973     0.2360571
24
227_C9H12N2O_10-0-1-2 (-75,) energy =    -534.9226510
C           1.4348897    -1.2211991    -0.3923779
N           0.1399781    -1.1517145    -0.9827641
C          -0.8671229    -0.4607749    -0.1642386
H          -1.7553617    -0.2656768    -0.7739243
H          -0.4785526     0.4971384     0.1916410
H          -1.1696752    -1.0583427     0.7109846
C          -0.3450239    -2.4656954    -1.4146797
H          -1.2470836    -2.3164434    -2.0166636
H          -0.5829115    -3.1290951    -0.5705006
H           0.4140049    -2.9539303    -2.0286056
N           2.0779849    -0.0024094    -0.4569476
H           1.6000974     0.7020068    -1.0020264
C           5.7318882     1.3038424     1.1926790
H           6.6704081     1.6557411     1.6111120
C           5.3350354    -0.0233630     1.3612401
H           5.9683920    -0.7126832     1.9137013
C           4.1358121    -0.4956663     0.8278399
H           3.8376439    -1.5278362     0.9480529
C           3.3076065     0.3833443     0.1126791
C           3.7044548     1.7195540    -0.0580858
H           3.0642428     2.4044452    -0.6112929
C           4.9073467     2.1729064     0.4758654
H           5.1969949     3.2103747     0.3313801
O           1.9353148    -2.2531922     0.0291364
24
227_C9H12N2O_10-0-1-2 (-60,) energy =    -534.9248288
C           1.4544500    -1.2423445    -0.4291907
N           0.1453927    -1.2062762    -0.9561498
C          -0.8498204    -0.3750869    -0.2716543
H          -1.6882019    -0.1775519    -0.9480788
H          -0.4202043     0.5824601     0.0297129
H          -1.2435479    -0.8702559     0.6306220
C          -0.3833711    -2.5272375    -1.2941646
H          -1.2643070    -2.3936539    -1.9304284
H          -0.6717746    -3.1057517    -0.4039067
H           0.3709441    -3.0955893    -1.8388682
N           2.0473459     0.0078727    -0.4052698
H           1.5538802     0.7357628    -0.9024956
C           5.7339018     1.2972090     1.1880946
H           6.6789684     1.6462649     1.5939962
C           5.3711295    -0.0463336     1.2908525
H           6.0385074    -0.7518313     1.7791968
C           4.1641592    -0.5152699     0.7720513
H           3.8946195    -1.5597965     0.8398179
C           3.2915464     0.3834321     0.1384596
C           3.6544586     1.7364151     0.0345219
H           2.9802989     2.4376707    -0.4544117
C           4.8654638     2.1864342     0.5526335
H           5.1268661     3.2372458     0.4595856
O           2.0223482    -2.2809990    -0.1207533
24
227_C9H12N2O_10-0-1-2 (-45,) energy =    -534.9260364
C           1.4703696    -1.2739222    -0.4459332
N           0.1481146    -1.2835480    -0.9051168
C          -0.8572974    -0.3690556    -0.3686697
H          -1.5932124    -0.1226326    -1.1428035
H          -0.4050556     0.5583190    -0.0149425
H          -1.3932047    -0.8210964     0.4809217
C          -0.3856087    -2.6051904    -1.2181236
H          -1.2350870    -2.4869433    -1.8991840
H          -0.7266816    -3.1392740    -0.3184193
H           0.3859249    -3.2052042    -1.6992592
N           2.0061005     0.0004107    -0.3236022
H           1.4918407     0.7457175    -0.7701838
C           5.7414373     1.2894440     1.1564065
H           6.6970633     1.6395119     1.5358525
C           5.3999553    -0.0614247     1.2320031
H           6.0946434    -0.7719570     1.6727032
C           4.1795215    -0.5319168     0.7472461
H           3.9276532    -1.5817733     0.7934048
C           3.2712923     0.3719085     0.1736387
C           3.6132051     1.7324413     0.0972886
H           2.9127353     2.4393880    -0.3445450
C           4.8369670     2.1844383     0.5825622
H           5.0803471     3.2412869     0.5111831
O           2.1045150    -2.3024795    -0.2457449
24
227_C9H12N2O_10-0-1-2 (-30,) energy =    -534.9267320
C           1.4475543    -1.3029123    -0.4571488
N           0.1374154    -1.3264705    -0.9384512
C          -0.8078234    -0.2628950    -0.6114317
H          -1.7870880    -0.5366696    -1.0103826
H          -0.5372424     0.6888328    -1.0864074
H          -0.9118654    -0.0984991     0.4711540
C          -0.4431498    -2.6575186    -1.1013459
H          -1.2328369    -2.6103228    -1.8577231
H          -0.8708832    -3.0462964    -0.1649799
H           0.3354319    -3.3440210    -1.4294727
N           1.9568009    -0.0285317    -0.2594154
H           1.3789353     0.7489436    -0.5407309
C           5.7204860     1.2547533     1.1553415
H           6.6829582     1.6038397     1.5180914
C           5.4455350    -0.1108256     1.0755240
H           6.1990391    -0.8337806     1.3776856
C           4.2170797    -0.5807439     0.6103217
H           4.0114458    -1.6392337     0.5431488
C           3.2325300     0.3388163     0.2153602
C           3.5081150     1.7144063     0.2954744
H           2.7493389     2.4336301    -0.0091719
C           4.7399552     2.1661059     0.7597828
H           4.9301930     3.2349503     0.8115583
O           2.0974815    -2.3275638    -0.2791448
24
227_C9H12N2O_10-0-1-2 (-15,) energy =    -534.9274169
C           1.4496674    -1.3254693    -0.4252993
N           0.1332832    -1.3628853    -0.8714348
C          -0.7727972    -0.2295232    -0.7582667
H          -1.7436271    -0.5192255    -1.1662070
H          -0.4290765     0.6287792    -1.3509164
H          -0.9272966     0.0954661     0.2818549
C          -0.4776113    -2.6790549    -1.0177154
H          -1.1227705    -2.6893378    -1.9031524
H          -1.0815533    -2.9513958    -0.1394321
H           0.3155128    -3.4150982    -1.1358187
N           1.9330223    -0.0501519    -0.1681319
H           1.3135635     0.7281332    -0.3326973
C           5.7370494     1.2534783     1.1166959
H           6.7088944     1.6084319     1.4473964
C           5.4966055    -0.1115167     0.9565930
H           6.2871061    -0.8283996     1.1638612
C           4.2561159    -0.5886898     0.5323438
H           4.0753137    -1.6463059     0.4069805
C           3.2239221     0.3230115     0.2596301
C           3.4649286     1.6981685     0.4203423
H           2.6697372     2.4120313     0.2102647
C           4.7086315     2.1570567     0.8441549
H           4.8706629     3.2255012     0.9603210
O           2.1278521    -2.3410360    -0.3004178
24
227_C9H12N2O_10-0-1-2 (0,) energy =    -534.9275806
C           1.4510984    -1.3452683    -0.3393586
N           0.1350944    -1.3966130    -0.7732620
C          -0.7043855    -0.2262333    -0.9622540
H          -1.6008368    -0.5246683    -1.5114593
H          -0.1992838     0.5357841    -1.5682912
H          -1.0324824     0.2296965    -0.0143636
C          -0.5025531    -2.7017371    -0.8738555
H          -0.9627522    -2.8266305    -1.8617606
H          -1.2813363    -2.8265277    -0.1080522
H           0.2611150    -3.4647478    -0.7326922
N           1.9254881    -0.0633159    -0.0907499
H           1.2623114     0.6956798    -0.1176457
C           5.7507921     1.2714310     1.0964055
H           6.7282925     1.6347318     1.4003354
C           5.5539195    -0.0783051     0.8026318
H           6.3852137    -0.7747439     0.8779165
C           4.3066638    -0.5653129     0.4106697
H           4.1574311    -1.6124419     0.1909196
C           3.2221442     0.3203143     0.3096574
C           3.4188808     1.6799052     0.6054737
H           2.5824738     2.3732354     0.5293015
C           4.6702299     2.1490448     0.9944389
H           4.7969872     3.2050566     1.2182572
O           2.1359593    -2.3548212    -0.1986284
24
227_C9H12N2O_10-0-1-2 (15,) energy =    -534.9273179
C           1.4313261    -1.3474743    -0.2838775
N           0.0973629    -1.3912770    -0.6568086
C          -0.6694248    -0.2237776    -1.0607465
H          -1.4869531    -0.5464785    -1.7114598
H          -0.0532577     0.4766012    -1.6354648
H          -1.1185113     0.3126343    -0.2095982
C          -0.5329955    -2.6942943    -0.8066750
H          -0.7810787    -2.8973505    -1.8576826
H          -1.4562215    -2.7450772    -0.2152793
H           0.1642270    -3.4540731    -0.4570999
N           1.8998109    -0.0675118    -0.0080553
H           1.2131177     0.6662023     0.0831761
C           5.7633671     1.2772341     1.0326010
H           6.7510001     1.6421050     1.2995600
C           5.5728881    -0.0580494     0.6751900
H           6.4182298    -0.7414364     0.6633383
C           4.3128184    -0.5475633     0.3306833
H           4.1687557    -1.5849426     0.0654772
C           3.2094535     0.3203684     0.3420874
C           3.3999975     1.6653729     0.7013621
H           2.5494169     2.3453750     0.7114952
C           4.6640080     2.1371755     1.0434704
H           4.7859457     3.1815024     1.3188989
O           2.1240177    -2.3562611    -0.1877959
24
227_C9H12N2O_10-0-1-2 (30,) energy =    -534.9266305
C           1.4095288    -1.3272416    -0.2110942
N           0.0599130    -1.3596265    -0.5402812
C          -0.6489450    -0.2580346    -1.1772295
H          -1.1185519    -0.6087323    -2.1055925
H           0.0403061     0.5445030    -1.4485090
H          -1.4415605     0.1529135    -0.5353517
C          -0.5576014    -2.6698229    -0.6844976
H          -0.5833824    -2.9944639    -1.7354130
H          -1.5864109    -2.6320863    -0.3075266
H           0.0150468    -3.3977963    -0.1118843
N           1.8855694    -0.0549739     0.0892705
H           1.1931429     0.6534662     0.2837487
C           5.7909264     1.2643795     0.9960995
H           6.7895767     1.6225228     1.2289316
C           5.5902109    -0.0475890     0.5652229
H           6.4385066    -0.7194197     0.4615534
C           4.3158337    -0.5280690     0.2636832
H           4.1651172    -1.5496809    -0.0543700
C           3.2086488     0.3250810     0.3940019
C           3.4093082     1.6463871     0.8271555
H           2.5554319     2.3145056     0.9287676
C           4.6876064     2.1093768     1.1258077
H           4.8175603     3.1352328     1.4605456
O           2.0958513    -2.3411860    -0.1460714
24
227_C9H12N2O_10-0-1-2 (45,) energy =    -534.9260364
C           1.3926140    -1.2814203    -0.1782820
N           0.0152394    -1.2893989    -0.4275145
C          -0.6250080    -0.2481053    -1.2281432
H          -0.6637881    -0.5318122    -2.2917939
H          -0.0838910     0.6964396    -1.1602028
H          -1.6521814    -0.0852271    -0.8818287
C          -0.5652085    -2.6123179    -0.6337042
H          -0.4072654    -2.9801463    -1.6587979
H          -1.6422549    -2.5551303    -0.4435448
H          -0.1108324    -3.3215420     0.0571814
N           1.8837342    -0.0348445     0.1838441
H           1.1957367     0.6571420     0.4432074
C           5.8275618     1.2602572     0.9426437
H           6.8362446     1.6118327     1.1393901
C           5.6045791    -0.0437409     0.4988108
H           6.4455721    -0.7160402     0.3491177
C           4.3169095    -0.5159442     0.2441368
H           4.1492566    -1.5320010    -0.0833755
C           3.2195322     0.3387659     0.4337453
C           3.4423223     1.6522911     0.8796163
H           2.5957178     2.3211642     1.0262241
C           4.7335666     2.1060427     1.1329892
H           4.8812151     3.1257270     1.4789756
O           2.0724248    -2.2997185    -0.2096931
24
227_C9H12N2O_10-0-1-2 (60,) energy =    -534.9248287
C           1.3857342    -1.2464550    -0.1930424
N          -0.0139396    -1.2199186    -0.3733694
C          -0.5689254    -0.2407229    -1.3130330
H          -0.4569773    -0.5701434    -2.3586241
H          -0.0729005     0.7265264    -1.2094836
H          -1.6361136    -0.1028658    -1.1091565
C          -0.6039311    -2.5461300    -0.5519414
H          -0.4035714    -2.9652422    -1.5492477
H          -1.6868504    -2.4633289    -0.4135963
H          -0.1975097    -3.2313654     0.1923799
N           1.8794102    -0.0415531     0.2757116
H           1.1855801     0.6273645     0.5785756
C           5.8363158     1.2732640     0.9130386
H           6.8489027     1.6282318     1.0815963
C           5.6080310    -0.0168057     0.4325489
H           6.4484302    -0.6745412     0.2258694
C           4.3152742    -0.4930505     0.2139167
H           4.1427718    -1.4985556    -0.1431223
C           3.2194587     0.3442231     0.4761070
C           3.4470562     1.6434199     0.9591827
H           2.6005616     2.2972340     1.1623587
C           4.7435120     2.1006913     1.1773432
H           4.8963885     3.1089599     1.5531334
O           2.0605022    -2.2550913    -0.3473508
24
227_C9H12N2O_10-0-1-2 (75,) energy =    -534.9226510
C           1.3861089    -1.2189755    -0.2304254
N          -0.0333377    -1.1700655    -0.3440855
C          -0.5290455    -0.3080834    -1.4271014
H          -0.3470801    -0.7471661    -2.4214517
H          -0.0429109     0.6704370    -1.3895732
H          -1.6071425    -0.1605911    -1.3058853
C          -0.6310315    -2.5062193    -0.4203057
H          -0.4061889    -3.0186499    -1.3669758
H          -1.7160964    -2.4018215    -0.3197909
H          -0.2569698    -3.1233313     0.3986281
N           1.8809497    -0.0613450     0.3336932
H           1.1780176     0.5764390     0.6812695
C           5.8366040     1.2804980     0.9088865
H           6.8495863     1.6405154     1.0637834
C           5.6102530     0.0184041     0.3581919
H           6.4519289    -0.6117659     0.0825402
C           4.3171366    -0.4637906     0.1555465
H           4.1448763    -1.4475578    -0.2582872
C           3.2207135     0.3392935     0.5061910
C           3.4457411     1.6099322     1.0602133
H           2.5978252     2.2359630     1.3324401
C           4.7428465     2.0733213     1.2611451
H           4.8956181     3.0590690     1.6925105
O           2.0573347    -2.2000458    -0.5134031
24
227_C9H12N2O_10-0-1-2 (90,) energy =    -534.9202147
C           1.3813949    -1.1551857    -0.3193874
N          -0.0564318    -1.0956075    -0.3678456
C          -0.5272968    -0.4003118    -1.5771901
H          -0.3011998    -0.9620359    -2.4981041
H          -0.0593171     0.5862856    -1.6481110
H          -1.6111873    -0.2613937    -1.5097738
C          -0.6469756    -2.4371080    -0.2826288
H          -0.4026661    -3.0671602    -1.1498819
H          -1.7340560    -2.3286002    -0.2130184
H          -0.2886709    -2.9390491     0.6196666
N           1.8820406    -0.0534116     0.3316596
H           1.1744036     0.5503054     0.7281338
C           5.8404793     1.2639389     0.9391941
H           6.8541596     1.6173283     1.1046335
C           5.6097559     0.0512127     0.2884534
H           6.4497606    -0.5466537    -0.0555142
C           4.3151110    -0.4203323     0.0703291
H           4.1381213    -1.3648893    -0.4251752
C           3.2230698     0.3435540     0.5095452
C           3.4514826     1.5641915     1.1643581
H           2.6055035     2.1581440     1.5052039
C           4.7501786     2.0175795     1.3777777
H           4.9071849     2.9645461     1.8872725
O           2.0450855    -2.0886467    -0.7418192
24
227_C9H12N2O_10-0-1-2 (105,) energy =    -534.9184005
C           1.3864398    -1.0542371    -0.4386518
N          -0.0630239    -1.0040405    -0.4310660
C          -0.5574051    -0.5215225    -1.7307720
H          -0.3098645    -1.2057095    -2.5580554
H          -0.1253991     0.4606342    -1.9483622
H          -1.6453988    -0.4120553    -1.6762255
C          -0.6214299    -2.3288552    -0.1255602
H          -0.3646430    -3.0854057    -0.8815384
H          -1.7107043    -2.2383409    -0.0646968
H          -0.2497335    -2.6672260     0.8462244
N           1.8938182    -0.0117104     0.2912279
H           1.1837115     0.5602833     0.7286774
C           5.8582271     1.2279139     1.0061063
H           6.8741330     1.5598984     1.1997602
C           5.6213612     0.0850058     0.2412024
H           6.4574206    -0.4788698    -0.1642213
C           4.3239540    -0.3579284    -0.0167406
H           4.1409937    -1.2463942    -0.6052452
C           3.2373640     0.3625993     0.5014107
C           3.4717357     1.5127165     1.2711237
H           2.6290500     2.0720156     1.6729885
C           4.7729160     1.9395530     1.5209058
H           4.9359164     2.8319380     2.1192333
O           2.0418973    -1.9204307    -0.9947636
24
227_C9H12N2O_10-0-1-2 (120,) energy =    -534.9194369
C           1.6100199    -1.0981779    -0.9028993
N           0.2765337    -1.5640131    -0.8509667
C          -0.5374015    -1.1960577    -2.0095197
H          -1.3629502    -1.9072288    -2.1216283
H           0.0849488    -1.2385365    -2.9039499
H          -0.9614327    -0.1829229    -1.9077126
C          -0.4605904    -1.5294472     0.4032198
H          -1.3328686    -2.1853136     0.3138239
H          -0.8378243    -0.5244632     0.6754415
H           0.1591695    -1.9124291     1.2187205
N           1.9790589    -0.2568653     0.1316045
H           1.2626907    -0.0010907     0.7954628
C           5.7464072     1.3223248     1.1916134
H           6.7080727     1.7377659     1.4786889
C           5.6210555     0.5654039     0.0261121
H           6.4908421     0.3893762    -0.6015602
C           4.3942693     0.0266773    -0.3627063
H           4.2971012    -0.5506189    -1.2710364
C           3.2634410     0.2439534     0.4392350
C           3.3871832     1.0050574     1.6129965
H           2.5126774     1.1769311     2.2386535
C           4.6175092     1.5406799     1.9831245
H           4.6909593     2.1275495     2.8948806
O           2.3367259    -1.3680734    -1.8486872
24
227_C9H12N2O_10-0-1-2 (135,) energy =    -534.9233883
C           1.5801313    -0.9813942    -0.9089428
N           0.2695586    -1.4770452    -0.8310685
C          -0.5321344    -1.3329631    -2.0439140
H          -1.2598251    -2.1493787    -2.1083231
H           0.1312508    -1.3814368    -2.9068748
H          -1.0791729    -0.3763631    -2.0567365
C          -0.4973558    -1.4133141     0.4023768
H          -1.3502559    -2.0942697     0.3184388
H          -0.9014611    -0.4080262     0.6241082
H           0.1083124    -1.7523573     1.2477115
N           1.9877816    -0.2286087     0.1801989
H           1.2940991    -0.0062610     0.8782744
C           5.7840686     1.3096110     1.1983479
H           6.7535108     1.7129333     1.4764205
C           5.6242298     0.6092020     0.0021705
H           6.4749073     0.4651203    -0.6590232
C           4.3870690     0.0864929    -0.3753935
H           4.2642920    -0.4459097    -1.3076085
C           3.2794188     0.2628506     0.4682232
C           3.4383627     0.9671762     1.6730892
H           2.5828037     1.1071564     2.3321061
C           4.6787615     1.4866958     2.0322436
H           4.7783814     2.0290692     2.9687709
O           2.2754695    -1.1675609    -1.9000935
24
227_C9H12N2O_10-0-1-2 (150,) energy =    -534.9262094
C           1.5456545    -0.8796896    -0.9162169
N           0.2471208    -1.3825527    -0.8286311
C          -0.5129808    -1.4538741    -2.0717343
H          -1.1282828    -2.3607095    -2.0834192
H           0.1892636    -1.4874511    -2.9032864
H          -1.1750555    -0.5819400    -2.1892842
C          -0.5494395    -1.3069120     0.3840815
H          -1.3942037    -1.9958474     0.2895754
H          -0.9622476    -0.3015027     0.5792305
H           0.0331343    -1.6318183     1.2516802
N           1.9952838    -0.2258103     0.2214767
H           1.3240162    -0.0385888     0.9503548
C           5.8136953     1.2851532     1.1990510
H           6.7891733     1.6795494     1.4687229
C           5.6236878     0.6332059    -0.0198640
H           6.4575607     0.5179982    -0.7076419
C           4.3785330     0.1217168    -0.3864218
H           4.2333161    -0.3733961    -1.3356579
C           3.2915894     0.2619528     0.4905249
C           3.4811945     0.9177504     1.7184803
H           2.6426001     1.0297545     2.4041918
C           4.7296679     1.4247519     2.0671863
H           4.8519693     1.9288807     3.0222480
O           2.2169738    -0.9967239    -1.9360143
24
227_C9H12N2O_10-0-1-2 (165,) energy =    -534.9274912
C           1.5137010    -0.7986818    -0.9215877
N           0.2132023    -1.2798218    -0.8358877
C          -0.4816080    -1.5699731    -2.0829642
H          -1.0128154    -2.5257754    -2.0037988
H           0.2579251    -1.6329347    -2.8794264
H          -1.2113728    -0.7849074    -2.3307700
C          -0.6038022    -1.1936492     0.3620152
H          -1.4729503    -1.8453382     0.2386777
H          -0.9775285    -0.1761515     0.5645625
H          -0.0575087    -1.5555589     1.2402039
N           2.0016578    -0.2385991     0.2517083
H           1.3510271    -0.0921685     1.0078392
C           5.8298422     1.2695505     1.1964320
H           6.8083995     1.6611514     1.4589565
C           5.6130849     0.6746985    -0.0469381
H           6.4292315     0.6013349    -0.7612551
C           4.3639401     0.1664487    -0.4043497
H           4.1988775    -0.2863011    -1.3712130
C           3.2987377     0.2536659     0.5058060
C           3.5156737     0.8522794     1.7584778
H           2.6946764     0.9229714     2.4705433
C           4.7682318     1.3548732     2.0986149
H           4.9110538     1.8138368     3.0734281
O           2.1719075    -0.8752604    -1.9549526
24
227_C9H12N2O_10-0-1-2 (180,) energy =    -534.9274956
C           1.5136301    -0.7572682    -0.9347399
N           0.1858910    -1.1488711    -0.8711188
C          -0.4222622    -1.7206449    -2.0639802
H          -0.7737829    -2.7431774    -1.8730312
H           0.3307986    -1.7425097    -2.8499748
H          -1.2746935    -1.1147272    -2.3984400
C          -0.6400796    -1.0150343     0.3173499
H          -1.6393991    -1.3929949     0.0923906
H          -0.7516005     0.0325066     0.6331687
H          -0.2535052    -1.6014884     1.1636896
N           2.0095215    -0.2235839     0.2479956
H           1.3843687    -0.1666181     1.0369958
C           5.8367584     1.2792374     1.2046448
H           6.8149435     1.6699338     1.4699147
C           5.5941128     0.7825523    -0.0764231
H           6.3893473     0.7852991    -0.8176276
C           4.3454053     0.2760730    -0.4379190
H           4.1618040    -0.1075057    -1.4309623
C           3.3067681     0.2648633     0.5066098
C           3.5498685     0.7650846     1.7972549
H           2.7495185     0.7603783     2.5358591
C           4.8018606     1.2663442     2.1412270
H           4.9651285     1.6475760     3.1458930
O           2.1875278    -0.8763422    -1.9547406
