27
388_C12H11NO2S_4-6-11-12 (-165,) energy =   -1067.2158177
C          -1.6076279    -2.4753578    -1.5104840
H          -2.4846315    -2.6918826    -2.1140125
C          -0.4467512    -3.2360935    -1.6726277
H          -0.4179955    -4.0426861    -2.3994384
C           0.6800212    -2.9669787    -0.8983895
H           1.5814413    -3.5618784    -1.0030769
C           0.6290057    -1.9304749     0.0393004
C          -0.5195381    -1.1542773     0.2016894
H          -0.5328597    -0.3506661     0.9292483
C          -1.6437979    -1.4401906    -0.5749537
H          -2.5465192    -0.8495087    -0.4482929
S           2.1521879    -1.5630935     0.9162118
N           1.6303040    -0.5994308     2.2243899
H           2.1921424     0.2479124     2.2068261
O           2.7069809    -2.8367587     1.3759742
O           2.9587407    -0.6361943     0.1145993
C           0.8395626    -2.0327250     6.1185388
H           0.6274930    -2.3879405     7.1226664
C           1.6295857    -0.8990511     5.9245097
H           2.0398273    -0.3644714     6.7768630
C           1.9128194    -0.4498794     4.6357443
H           2.5433225     0.4241868     4.4884632
C           1.3873114    -1.1223541     3.5255679
C           0.5840415    -2.2532272     3.7165608
H           0.1671715    -2.7765278     2.8630413
C           0.3260257    -2.7065707     5.0088830
H          -0.2908341    -3.5904250     5.1461088
27
388_C12H11NO2S_4-6-11-12 (-150,) energy =   -1067.2168555
C          -1.6150613    -2.5144032    -1.4461648
H          -2.4953783    -2.7763791    -2.0264755
C          -0.5150823    -3.3741029    -1.4237198
H          -0.5365197    -4.3037952    -1.9848848
C           0.6161853    -3.0450248    -0.6769116
H           1.4738335    -3.7078126    -0.6360265
C           0.6268206    -1.8498256     0.0463331
C          -0.4622474    -0.9755288     0.0232761
H          -0.4299181    -0.0540337     0.5940449
C          -1.5891485    -1.3194803    -0.7225782
H          -2.4466739    -0.6529820    -0.7384711
S           2.1505381    -1.4033397     0.8836231
N           1.6021592    -0.5133192     2.2337010
H           2.1411905     0.3487931     2.2551960
O           2.8047768    -2.6482822     1.2890982
O           2.8647351    -0.3969550     0.0903156
C           0.8648417    -2.1516482     6.0570508
H           0.6662625    -2.5609278     7.0432109
C           1.6319432    -0.9947509     5.9154747
H           2.0377436    -0.4958820     6.7912880
C           1.8979670    -0.4763712     4.6491348
H           2.5114144     0.4154828     4.5420857
C           1.3775857    -1.1020164     3.5095543
C           0.5963763    -2.2557965     3.6487264
H           0.1799032    -2.7410425     2.7727370
C           0.3562323    -2.7785385     4.9179463
H          -0.2437147    -3.6792818     5.0145235
27
388_C12H11NO2S_4-6-11-12 (-135,) energy =   -1067.2174131
C          -1.6188657    -2.5612674    -1.4020094
H          -2.5013300    -2.8538040    -1.9641986
C          -0.5991633    -3.4866412    -1.1755837
H          -0.6842357    -4.4983587    -1.5614326
C           0.5359331    -3.1162941    -0.4518399
H           1.3385187    -3.8198856    -0.2595008
C           0.6272552    -1.8140310     0.0410022
C          -0.3816221    -0.8744564    -0.1867984
H          -0.2865117     0.1324100     0.2054501
C          -1.5105279    -1.2578351    -0.9076342
H          -2.3057012    -0.5393976    -1.0845179
S           2.1378285    -1.3234830     0.8771504
N           1.5632642    -0.5004338     2.2595590
H           2.0649862     0.3830742     2.3048526
O           2.8530362    -2.5467342     1.2438687
O           2.7882404    -0.2585557     0.1064825
C           0.9242099    -2.2821190     6.0358985
H           0.7504815    -2.7288809     7.0104129
C           1.6422420    -1.0909782     5.9244187
H           2.0343653    -0.6025262     6.8122692
C           1.8767200    -0.5241268     4.6727146
H           2.4525247     0.3949060     4.5888625
C           1.3731545    -1.1355977     3.5178000
C           0.6401954    -2.3237584     3.6275125
H           0.2348303    -2.7975988     2.7401537
C           0.4319566    -2.8942528     4.8816385
H          -0.1307197    -3.8209101     4.9548506
27
388_C12H11NO2S_4-6-11-12 (-120,) energy =   -1067.2176040
C          -1.5972974    -2.5578348    -1.4161920
H          -2.4687940    -2.8874172    -1.9749704
C          -0.6594988    -3.4928372    -0.9763026
H          -0.7958306    -4.5482966    -1.1935158
C           0.4625485    -3.0747080    -0.2576503
H           1.2090753    -3.7812264     0.0885207
C           0.6221167    -1.7155857     0.0126613
C          -0.3031471    -0.7671333    -0.4306359
H          -0.1487676     0.2859732    -0.2204793
C          -1.4188616    -1.1975390    -1.1449790
H          -2.1479327    -0.4717083    -1.4932951
S           2.0930211    -1.1697724     0.8845021
N           1.4660838    -0.4324701     2.2961141
H           1.9168913     0.4764602     2.3709685
O           2.8754065    -2.3610452     1.2174482
O           2.6766318    -0.0392285     0.1548836
C           1.0031680    -2.3930888     6.0094504
H           0.8737660    -2.8867261     6.9681509
C           1.7019823    -1.1882251     5.9261232
H           2.1236246    -0.7367702     6.8200090
C           1.8800857    -0.5610703     4.6939517
H           2.4431209     0.3673820     4.6302231
C           1.3365956    -1.1242757     3.5326939
C           0.6215983    -2.3252719     3.6158310
H           0.1809222    -2.7574194     2.7238655
C           0.4710912    -2.9574710     4.8484417
H          -0.0789420    -3.8931095     4.9009396
27
388_C12H11NO2S_4-6-11-12 (-105,) energy =   -1067.2174659
C          -1.5736950    -2.5619493    -1.4682028
H          -2.4253279    -2.9184642    -2.0409162
C          -0.7471072    -3.4740581    -0.8099294
H          -0.9495902    -4.5393362    -0.8730604
C           0.3498288    -3.0212958    -0.0744795
H           1.0171986    -3.7131862     0.4280162
C           0.5982521    -1.6498123    -0.0087829
C          -0.2139277    -0.7262689    -0.6705412
H           0.0160957     0.3327540    -0.6219211
C          -1.3056472    -1.1916131    -1.4011738
H          -1.9445323    -0.4849208    -1.9228471
S           2.0131438    -1.0580116     0.9243407
N           1.3246056    -0.4140353     2.3558012
H           1.6891959     0.5313570     2.4470495
O           2.8491081    -2.2177576     1.2367184
O           2.5438902     0.1286926     0.2447175
C           1.1182277    -2.5006523     6.0235520
H           1.0542846    -3.0281329     6.9708101
C           1.7921592    -1.2815278     5.9414876
H           2.2595701    -0.8537049     6.8241565
C           1.8870883    -0.6104640     4.7231193
H           2.4327929     0.3279822     4.6570625
C           1.2827088    -1.1433901     3.5780683
C           0.5908005    -2.3573865     3.6623533
H           0.0982652    -2.7598320     2.7835979
C           0.5247828    -3.0350762     4.8780939
H          -0.0086228    -3.9802402     4.9319472
27
388_C12H11NO2S_4-6-11-12 (-90,) energy =   -1067.2167320
C          -1.5349500    -2.5374208    -1.5911800
H          -2.3575819    -2.9033215    -2.1992598
C          -0.8660547    -3.4085529    -0.7281292
H          -1.1622425    -4.4519166    -0.6688600
C           0.1927501    -2.9451441     0.0530437
H           0.7442736    -3.6147060     0.7043993
C           0.5665424    -1.6032926    -0.0432522
C          -0.0885042    -0.7227624    -0.9054292
H           0.2373649     0.3095328    -0.9720359
C          -1.1439530    -1.1996706    -1.6828433
H          -1.6579791    -0.5263805    -2.3627690
S           1.9098103    -0.9852455     0.9760686
N           1.1433245    -0.4493991     2.4153661
H           1.3786424     0.5357788     2.5104900
O           2.7849174    -2.1177924     1.2797686
O           2.4050189     0.2512067     0.3608999
C           1.2966875    -2.5625827     6.0718701
H           1.3244695    -3.0987034     7.0160900
C           1.9070440    -1.3131112     5.9546563
H           2.4161517    -0.8708677     6.8065803
C           1.8844788    -0.6304628     4.7390435
H           2.3818330     0.3317337     4.6420533
C           1.2246456    -1.1835037     3.6351490
C           0.5949568    -2.4271015     3.7572653
H           0.0546367    -2.8393608     2.9118819
C           0.6467116    -3.1166228     4.9670637
H           0.1602962    -4.0846678     5.0506365
27
388_C12H11NO2S_4-6-11-12 (-75,) energy =   -1067.2163092
C          -1.4485029    -1.8490544    -2.3389312
H          -2.1783882    -1.9046189    -3.1418557
C          -1.2537006    -2.9509538    -1.5003378
H          -1.8276737    -3.8604198    -1.6525471
C          -0.3178295    -2.8884119    -0.4700668
H          -0.1458359    -3.7368257     0.1836796
C           0.4101783    -1.7093895    -0.2915375
C           0.2350293    -0.6053985    -1.1261719
H           0.8359770     0.2846987    -0.9734605
C          -0.7059587    -0.6815811    -2.1548526
H          -0.8527553     0.1689643    -2.8142517
S           1.6345932    -1.6289342     1.0171520
N           0.5804582    -1.4795750     2.3764692
H           0.1009659    -0.5841889     2.2826375
O           2.3011971    -2.9256146     1.1459878
O           2.4176240    -0.4013522     0.8254461
C           2.0868243    -1.9675332     6.3006232
H           2.4560629    -2.0978011     7.3138981
C           1.6232656    -0.7215450     5.8769818
H           1.6319954     0.1264579     6.5562650
C           1.1610901    -0.5518653     4.5722919
H           0.8213941     0.4251700     4.2359272
C           1.1340712    -1.6386342     3.6903033
C           1.5863078    -2.8940250     4.1158699
H           1.5597478    -3.7314451     3.4294501
C           2.0715279    -3.0462264     5.4134272
H           2.4279828    -4.0206486     5.7360836
27
388_C12H11NO2S_4-6-11-12 (-60,) energy =   -1067.2162518
C          -1.4268363    -1.8718631    -2.3560937
H          -2.1426788    -1.9599618    -3.1686736
C          -1.3785722    -2.8565029    -1.3642646
H          -2.0533500    -3.7066131    -1.4060502
C          -0.4616585    -2.7529381    -0.3203341
H          -0.4098120    -3.5092887     0.4554894
C           0.3946925    -1.6490247    -0.2819455
C           0.3596777    -0.6599769    -1.2649836
H           1.0432692     0.1798375    -1.2039972
C          -0.5605404    -0.7786402    -2.3083208
H          -0.5985471    -0.0168881    -3.0816391
S           1.6171966    -1.5220717     1.0251702
N           0.5576980    -1.5168254     2.3873448
H          -0.0023031    -0.6664907     2.3255328
O           2.3924437    -2.7609514     1.1082213
O           2.3005765    -0.2304359     0.8779626
C           2.1111467    -2.0093748     6.2919810
H           2.4928420    -2.1424205     7.3002526
C           1.5374626    -0.7952586     5.9129312
H           1.4722683     0.0252737     6.6221622
C           1.0587197    -0.6208871     4.6148346
H           0.6322164     0.3331434     4.3131686
C           1.1268296    -1.6736794     3.6948638
C           1.6904124    -2.8982255     4.0749587
H           1.7375501    -3.7096545     3.3590154
C           2.1900651    -3.0527488     5.3667681
H           2.6326161    -4.0023899     5.6547426
27
388_C12H11NO2S_4-6-11-12 (-45,) energy =   -1067.2157092
C          -1.2809324    -2.0215268    -2.5600573
H          -1.9853794    -2.1913263    -3.3696065
C          -1.3425706    -2.8107649    -1.4082362
H          -2.0928886    -3.5913338    -1.3211680
C          -0.4417348    -2.6002558    -0.3652287
H          -0.4800753    -3.2019085     0.5361158
C           0.5124150    -1.5871229    -0.4914044
C           0.5812218    -0.7867513    -1.6331987
H           1.3235189     0.0017619    -1.6923634
C          -0.3216943    -1.0135174    -2.6726268
H          -0.2780143    -0.3980880    -3.5665319
S           1.7318592    -1.3164783     0.7982410
N           0.7070507    -1.4085832     2.1820176
H           0.1138147    -0.5790278     2.1698221
O           2.6456132    -2.4571617     0.8819332
O           2.2639367     0.0412710     0.6239756
C           2.3499670    -2.0161248     6.0333395
H           2.7545846    -2.1791684     7.0281760
C           1.7442304    -0.8008282     5.7125273
H           1.6763539    -0.0093295     6.4537634
C           1.2361601    -0.5876229     4.4314561
H           0.7843194     0.3679268     4.1749838
C           1.3072859    -1.6030604     3.4705847
C           1.9031781    -2.8286083     3.7924373
H           1.9543264    -3.6103663     3.0444169
C           2.4318327    -3.0217024     5.0673415
H           2.8998119    -3.9718137     5.3098757
27
388_C12H11NO2S_4-6-11-12 (-30,) energy =   -1067.2148461
C          -1.2377953    -2.5290152    -2.0865085
H          -1.8954415    -2.9939739    -2.8156015
C          -1.3303053    -2.8848049    -0.7393674
H          -2.0605868    -3.6218715    -0.4179167
C          -0.4913194    -2.2898228     0.2035275
H          -0.5688554    -2.5477729     1.2540969
C           0.4376445    -1.3392169    -0.2218725
C           0.5335722    -0.9661446    -1.5648872
H           1.2458730    -0.2055810    -1.8667329
C          -0.3088808    -1.5704123    -2.4973492
H          -0.2435693    -1.2860175    -3.5435670
S           1.6016947    -0.5857721     0.9206451
N           0.7477295    -0.6013123     2.3981921
H           0.4259862     0.3455015     2.5801310
O           2.7734026    -1.4531108     1.0428100
O           1.7352526     0.8236003     0.5383271
C           1.8462050    -2.6554245     5.9244659
H           2.1083181    -3.1811797     6.8378999
C           1.4795483    -1.3099140     5.9652260
H           1.4545867    -0.7769973     6.9117867
C           1.1558802    -0.6322559     4.7909972
H           0.8859944     0.4209033     4.8265606
C           1.1735111    -1.3036132     3.5614362
C           1.5312452    -2.6572627     3.5179953
H           1.5617574    -3.1825349     2.5706905
C           1.8756992    -3.3179087     4.6960175
H           2.1620516    -4.3650154     4.6493044
27
388_C12H11NO2S_4-6-11-12 (-15,) energy =   -1067.2145149
C          -1.1625160    -2.6375269    -1.9987722
H          -1.7806983    -3.1771383    -2.7107400
C          -1.4026393    -2.7654599    -0.6304243
H          -2.2084064    -3.4009042    -0.2742352
C          -0.6137776    -2.0727465     0.2908578
H          -0.8015506    -2.1545051     1.3553981
C           0.4154233    -1.2572165    -0.1790134
C           0.6623562    -1.1148216    -1.5483501
H           1.4566394    -0.4616831    -1.8954216
C          -0.1322339    -1.8113619    -2.4562236
H           0.0510119    -1.7058239    -3.5215669
S           1.5146440    -0.3676920     0.9292005
N           0.7090664    -0.4439400     2.4296799
H           0.4211879     0.5007066     2.6697046
O           2.7780036    -1.1010197     1.0077514
O           1.4836155     1.0477851     0.5479135
C           1.8680558    -2.7417932     5.7799653
H           2.1476474    -3.3303356     6.6487793
C           1.5017100    -1.4031526     5.9236805
H           1.4945008    -0.9388946     6.9060337
C           1.1549231    -0.6439654     4.8074798
H           0.8848508     0.4033576     4.9232160
C           1.1507238    -1.2260377     3.5333070
C           1.5080363    -2.5724143     3.3862107
H           1.5169286    -3.0306127     2.4039468
C           1.8743314    -3.3153178     4.5072551
H           2.1599028    -4.3559829     4.3805711
27
388_C12H11NO2S_4-6-11-12 (0,) energy =   -1067.2147285
C          -1.1699669    -2.7201000    -1.9315261
H          -1.7461400    -3.3213143    -2.6292218
C          -1.5560329    -2.6448086    -0.5933332
H          -2.4317275    -3.1854096    -0.2457319
C          -0.8214118    -1.8721028     0.3094631
H          -1.1151801    -1.8001040     1.3502864
C           0.3007996    -1.1819514    -0.1482114
C           0.7027319    -1.2550229    -1.4865196
H           1.5854453    -0.7208782    -1.8236511
C          -0.0418289    -2.0249587    -2.3767654
H           0.2611925    -2.0852597    -3.4180103
S           1.3184739    -0.1724455     0.9347706
N           0.5620916    -0.3276131     2.4537184
H           0.2865110     0.6050166     2.7490990
O           2.6570453    -0.7621285     0.9597808
O           1.1218026     1.2365574     0.5789568
C           1.8672216    -2.7982808     5.6214233
H           2.1865594    -3.4323894     6.4432016
C           1.4929634    -1.4748350     5.8567583
H           1.5196144    -1.0683457     6.8640556
C           1.0949671    -0.6567439     4.8008503
H           0.8192405     0.3789070     4.9869007
C           1.0479195    -1.1646822     3.4964362
C           1.4123145    -2.4956308     3.2575871
H           1.3812794    -2.8982407     2.2514108
C           1.8293841    -3.2977435     4.3183901
H           2.1194611    -4.3260380     4.1208494
27
388_C12H11NO2S_4-6-11-12 (15,) energy =   -1067.2156126
C          -1.0835304    -2.7840419    -1.8788838
H          -1.6221831    -3.4233051    -2.5727485
C          -1.6186126    -2.5198739    -0.6174885
H          -2.5710443    -2.9532735    -0.3260687
C          -0.9331745    -1.6982477     0.2797647
H          -1.3355568    -1.4853435     1.2635780
C           0.2912118    -1.1508801    -0.1050774
C           0.8456670    -1.4197968    -1.3608865
H           1.8131016    -1.0080733    -1.6291775
C           0.1471081    -2.2347824    -2.2490696
H           0.5683228    -2.4478209    -3.2272671
S           1.2274780    -0.0575097     0.9692390
N           0.5013460    -0.2861458     2.4959077
H           0.2343926     0.6342358     2.8355375
O           2.6132283    -0.5272125     0.9634420
O           0.9030826     1.3350494     0.6409142
C           1.9635079    -2.8547513     5.5142037
H           2.3246412    -3.5152018     6.2970296
C           1.6009390    -1.5407942     5.8125483
H           1.6790887    -1.1681666     6.8302056
C           1.1495059    -0.6888115     4.8059450
H           0.8845431     0.3398826     5.0399174
C           1.0358466    -1.1534527     3.4898121
C           1.3873682    -2.4749613     3.1887102
H           1.2974954    -2.8455127     2.1735161
C           1.8590537    -3.3111275     4.1989661
H           2.1379850    -4.3320986     3.9532897
27
388_C12H11NO2S_4-6-11-12 (30,) energy =   -1067.2166284
C          -1.0542163    -2.8268855    -1.8283606
H          -1.5643881    -3.4960655    -2.5155708
C          -1.7113241    -2.3734278    -0.6823197
H          -2.7294677    -2.6902383    -0.4753170
C          -1.0630711    -1.5143416     0.2052138
H          -1.5575556    -1.1616939     1.1034105
C           0.2482741    -1.1214553    -0.0703163
C           0.9214784    -1.5766732    -1.2071482
H           1.9487922    -1.2765538    -1.3836405
C           0.2591039    -2.4298053    -2.0892244
H           0.7728027    -2.7897583    -2.9759289
S           1.1165804     0.0374917     0.9914531
N           0.4305938    -0.2547716     2.5271104
H           0.1539408     0.6494487     2.9012872
O           2.5344172    -0.3239106     0.9591341
O           0.6778953     1.4035107     0.6849357
C           2.0344782    -2.8747450     5.4269583
H           2.4328247    -3.5491184     6.1792776
C           1.6446919    -1.5810892     5.7754369
H           1.7386011    -1.2383979     6.8022463
C           1.1453136    -0.7109643     4.8076974
H           0.8590899     0.3023995     5.0803914
C           1.0110574    -1.1372609     3.4805988
C           1.3892369    -2.4390524     3.1296724
H           1.2801202    -2.7815240     2.1064783
C           1.9085759    -3.2928761     4.1008847
H           2.2075096    -4.2980373     3.8164891
27
388_C12H11NO2S_4-6-11-12 (45,) energy =   -1067.2173082
C          -1.0323159    -2.8523957    -1.8078668
H          -1.5173691    -3.5400479    -2.4950355
C          -1.7844214    -2.2165504    -0.8156146
H          -2.8498583    -2.4095731    -0.7298332
C          -1.1701934    -1.3333833     0.0700726
H          -1.7405314    -0.8396073     0.8494098
C           0.2025849    -1.1020663    -0.0487122
C           0.9665327    -1.7315104    -1.0327086
H           2.0319443    -1.5376226    -1.0917875
C           0.3380619    -2.6108924    -1.9160184
H           0.9217449    -3.1079776    -2.6853867
S           1.0146952     0.0891871     1.0207851
N           0.3716290    -0.2759329     2.5605347
H           0.0631826     0.6043805     2.9658349
O           2.4520810    -0.1810284     0.9640422
O           0.4786817     1.4270265     0.7481441
C           2.1483315    -2.8987817     5.3547140
H           2.5917652    -3.5746348     6.0800026
C           1.7168546    -1.6305594     5.7449629
H           1.8230176    -1.3094278     6.7775412
C           1.1597100    -0.7577477     4.8117555
H           0.8412307     0.2367324     5.1163565
C           1.0085614    -1.1568151     3.4779519
C           1.4279014    -2.4340982     3.0858796
H           1.3034475    -2.7567424     2.0579522
C           2.0051178    -3.2897230     4.0220557
H           2.3352717    -4.2753701     3.7055881
27
388_C12H11NO2S_4-6-11-12 (60,) energy =   -1067.2175877
C          -1.0243796    -2.8944157    -1.8240777
H          -1.4756897    -3.5978072    -2.5182919
C          -1.8395007    -2.0900509    -1.0212670
H          -2.9205957    -2.1669752    -1.0920312
C          -1.2684231    -1.1849053    -0.1297391
H          -1.8890212    -0.5519716     0.4957771
C           0.1241184    -1.1029463    -0.0495800
C           0.9503445    -1.8939478    -0.8478868
H           2.0273609    -1.7960823    -0.7659077
C           0.3649026    -2.7958862    -1.7390602
H           0.9964165    -3.4179870    -2.3666900
S           0.8757424     0.0992282     1.0509990
N           0.2803262    -0.3508293     2.5904263
H          -0.0755336     0.4985096     3.0226348
O           2.3262921    -0.0797223     0.9737865
O           0.2451672     1.4037101     0.8236297
C           2.2991980    -2.8969183     5.2898116
H           2.8048999    -3.5543405     5.9909295
C           1.8335662    -1.6488227     5.7049326
H           1.9757626    -1.3250781     6.7323552
C           1.1963182    -0.7988724     4.8022955
H           0.8524582     0.1814482     5.1245759
C           0.9971977    -1.2025053     3.4761708
C           1.4500849    -2.4606995     3.0607250
H           1.2836246    -2.7883761     2.0402586
C           2.1081237    -3.2924781     3.9644541
H           2.4625934    -4.2636403     3.6299250
27
388_C12H11NO2S_4-6-11-12 (75,) energy =   -1067.2175047
C          -1.0193293    -2.8575879    -1.8897462
H          -1.4371786    -3.5526594    -2.6126770
C          -1.8459287    -1.9100815    -1.2787380
H          -2.9020510    -1.8653498    -1.5284708
C          -1.3169483    -1.0131113    -0.3527182
H          -1.9424093    -0.2617381     0.1174184
C           0.0432214    -1.0853744    -0.0435527
C           0.8839737    -2.0151153    -0.6563262
H           1.9419675    -2.0219971    -0.4172863
C           0.3413599    -2.9078325    -1.5825956
H           0.9846970    -3.6357317    -2.0684770
S           0.7380348     0.0892171     1.1228509
N           0.1819285    -0.4653272     2.6459950
H          -0.2485872     0.3358865     3.1017712
O           2.1950581    -0.0178774     1.0389226
O           0.0377206     1.3673669     0.9569814
C           2.4639502    -2.8685059     5.2663094
H           3.0381425    -3.4908695     5.9464465
C           1.9761704    -1.6306594     5.6869089
H           2.1700620    -1.2802461     6.6969731
C           1.2511136    -0.8249674     4.8100488
H           0.8919350     0.1492306     5.1337926
C           0.9845601    -1.2652381     3.5078860
C           1.4579480    -2.5145390     3.0895585
H           1.2315551    -2.8711336     2.0903755
C           2.2052916    -3.3009294     3.9640091
H           2.5743981    -4.2660323     3.6277424
27
388_C12H11NO2S_4-6-11-12 (90,) energy =   -1067.2168448
C          -1.0363458    -2.7783041    -2.0047208
H          -1.4285372    -3.4386510    -2.7731461
C          -1.8091635    -1.7088466    -1.5462281
H          -2.7977643    -1.5327887    -1.9603448
C          -1.3108511    -0.8547585    -0.5625829
H          -1.8884696    -0.0079240    -0.2084123
C          -0.0393288    -1.0960663    -0.0398096
C           0.7557452    -2.1438641    -0.5085525
H           1.7625840    -2.2719286    -0.1257813
C           0.2447380    -2.9922257    -1.4910833
H           0.8530511    -3.8111713    -1.8640897
S           0.6222131     0.0290490     1.1940663
N           0.1088530    -0.6291345     2.6932417
H          -0.4191423     0.1049526     3.1593381
O           2.0811804    -0.0311795     1.1022229
O          -0.1213593     1.2898297     1.0954290
C           2.6397147    -2.7847712     5.3015379
H           3.2787240    -3.3447254     5.9781638
C           2.0879088    -1.5670526     5.7016367
H           2.2967541    -1.1706046     6.6914729
C           1.2792392    -0.8403201     4.8287130
H           0.8700008     0.1201712     5.1330720
C           0.9935797    -1.3422701     3.5533662
C           1.5301081    -2.5729049     3.1583336
H           1.2821405    -2.9783347     2.1832799
C           2.3608738    -3.2793375     4.0257685
H           2.7781066    -4.2308594     3.7076000
27
388_C12H11NO2S_4-6-11-12 (105,) energy =   -1067.2162903
C          -1.2167871    -1.9500551    -2.4519939
H          -1.7954232    -1.7323122    -3.3454343
C           0.1667957    -1.7656417    -2.4586622
H           0.6660485    -1.4094834    -3.3551288
C           0.9159302    -2.0460719    -1.3143197
H           1.9940794    -1.9270650    -1.3007552
C           0.2563984    -2.5063706    -0.1744188
C          -1.1265459    -2.7034679    -0.1551420
H          -1.6081568    -3.0776333     0.7419331
C          -1.8621936    -2.4197748    -1.3039542
H          -2.9380371    -2.5690406    -1.3056518
S           1.2120718    -2.8829723     1.2963809
N           0.8040367    -1.5052348     2.2542875
H           1.1867452    -0.6887640     1.7774896
O           0.6356629    -4.0470769     1.9707681
O           2.6334096    -2.8601606     0.9278889
C           1.7630940    -1.4212544     6.3749008
H           1.9950836    -1.3872118     7.4355687
C           2.3926797    -0.5451006     5.4901463
H           3.1209900     0.1736152     5.8556332
C           2.1038349    -0.5974773     4.1268741
H           2.6118595     0.0703758     3.4347926
C           1.1596712    -1.5113028     3.6440780
C           0.5158515    -2.3834508     4.5309061
H          -0.2163750    -3.0854195     4.1511703
C           0.8317035    -2.3410278     5.8876166
H           0.3343828    -3.0247238     6.5701604
27
388_C12H11NO2S_4-6-11-12 (120,) energy =   -1067.2162915
C          -1.2293514    -1.9881743    -2.4549040
H          -1.8260333    -1.8034656    -3.3439206
C           0.1636849    -1.9742218    -2.5379314
H           0.6525441    -1.7819099    -3.4885867
C           0.9355396    -2.2090842    -1.3982622
H           2.0194680    -2.2063723    -1.4365993
C           0.2897365    -2.4542027    -0.1865702
C          -1.1043603    -2.4819053    -0.0900319
H          -1.5803045    -2.6847640     0.8633948
C          -1.8624343    -2.2415583    -1.2339295
H          -2.9468737    -2.2551749    -1.1744228
S           1.2815937    -2.8123940     1.2650946
N           0.7742470    -1.5037569     2.2687830
H           1.0871413    -0.6441017     1.8177249
O           0.8039358    -4.0381674     1.9068526
O           2.6945996    -2.6752354     0.8886933
C           1.7362287    -1.4699723     6.3891439
H           1.9678404    -1.4494923     7.4502420
C           2.2893745    -0.5186503     5.5313063
H           2.9575738     0.2457643     5.9182629
C           2.0014607    -0.5528335     4.1673165
H           2.4508430     0.1755072     3.4959915
C           1.1333794    -1.5254812     3.6573571
C           0.5660474    -2.4743688     4.5171594
H          -0.1070881    -3.2223897     4.1165046
C           0.8817863    -2.4476184     5.8743517
H           0.4442930    -3.1903171     6.5358657
27
388_C12H11NO2S_4-6-11-12 (135,) energy =   -1067.2159083
C          -1.2732968    -2.0996949    -2.4409765
H          -1.9063254    -1.9874912    -3.3168461
C           0.1090283    -2.2195684    -2.5932226
H           0.5532953    -2.2023749    -3.5842053
C           0.9275347    -2.3605539    -1.4715914
H           2.0046397    -2.4465528    -1.5651255
C           0.3413088    -2.3748246    -0.2050352
C          -1.0424719    -2.2708725    -0.0385576
H          -1.4734440    -2.2913712     0.9564441
C          -1.8476642    -2.1239646    -1.1667056
H          -2.9237842    -2.0318075    -1.0513833
S           1.4016127    -2.6696040     1.2127736
N           0.8074184    -1.4405932     2.2669329
H           1.0850910    -0.5448413     1.8658651
O           1.0666902    -3.9502604     1.8377895
O           2.7828212    -2.3905867     0.7984988
C           1.6727968    -1.5581945     6.4070117
H           1.8791713    -1.5772530     7.4733349
C           2.2135152    -0.5523943     5.6052918
H           2.8465154     0.2154881     6.0413931
C           1.9582178    -0.5354909     4.2344309
H           2.3982194     0.2359285     3.6064672
C           1.1354302    -1.5125269     3.6617907
C           0.5807402    -2.5163637     4.4651973
H          -0.0558617    -3.2686299     4.0156663
C           0.8637643    -2.5395764     5.8295877
H           0.4367565    -3.3248840     6.4472590
27
388_C12H11NO2S_4-6-11-12 (150,) energy =   -1067.2149549
C          -1.4152262    -2.2732250    -2.3443831
H          -2.1102726    -2.2619020    -3.1793556
C          -0.0601823    -2.5239689    -2.5705350
H           0.3009762    -2.7082307    -3.5781707
C           0.8374234    -2.5352337    -1.5033848
H           1.8957996    -2.7112895    -1.6633060
C           0.3610055    -2.2882594    -0.2131420
C          -0.9944156    -2.0530482     0.0289059
H          -1.3403003    -1.8703457     1.0400563
C          -1.8800630    -2.0363467    -1.0486282
H          -2.9343023    -1.8412386    -0.8740617
S           1.5328986    -2.4548038     1.1370247
N           0.8926797    -1.3056857     2.2489099
H           1.1807637    -0.3829510     1.9252067
O           1.3915896    -3.7703815     1.7626100
O           2.8398602    -2.0107755     0.6357767
C           1.5086095    -1.7016828     6.4153417
H           1.6507632    -1.7913141     7.4885258
C           2.1082926    -0.6558588     5.7131850
H           2.7230295     0.0731034     6.2339591
C           1.9358636    -0.5483542     4.3333735
H           2.4215110     0.2542666     3.7830354
C           1.1371429    -1.4740510     3.6520234
C           0.5239292    -2.5175335     4.3553567
H          -0.0921111    -3.2315908     3.8221392
C           0.7241789    -2.6321458     5.7295991
H           0.2521230    -3.4485123     6.2692613
27
388_C12H11NO2S_4-6-11-12 (165,) energy =   -1067.2145354
C          -1.5983955    -2.3044115    -1.7261327
H          -2.4584826    -2.4201354    -2.3796505
C          -0.3371755    -2.7298240    -2.1518533
H          -0.2137408    -3.1743098    -3.1351534
C           0.7699390    -2.5814856    -1.3190836
H           1.7552259    -2.8970002    -1.6469756
C           0.5993558    -2.0043544    -0.0566586
C          -0.6529935    -1.5715644     0.3789895
H          -0.7619625    -1.1104215     1.3540643
C          -1.7541545    -1.7258578    -0.4660492
H          -2.7326778    -1.3877023    -0.1373080
S           2.0602364    -1.9076865     0.9846855
N           1.6048595    -0.8050265     2.2019387
H           2.1572490     0.0384408     2.0748178
O           2.2912459    -3.2252131     1.5770159
O           3.1084916    -1.2280746     0.2172112
C           0.8581056    -1.7165821     6.2591732
H           0.6565213    -1.9334639     7.3040331
C           1.6636199    -0.6331930     5.9067195
H           2.0965983     0.0012231     6.6752547
C           1.9328888    -0.3622459     4.5663181
H           2.5742090     0.4741839     4.2974331
C           1.3778369    -1.1635587     3.5602179
C           0.5603740    -2.2459517     3.9097637
H           0.1336178    -2.8784675     3.1399473
C           0.3167935    -2.5204480     5.2544358
H          -0.3101029    -3.3688638     5.5147570
27
388_C12H11NO2S_4-6-11-12 (180,) energy =   -1067.2147557
C          -1.6335512    -2.3482386    -1.6262778
H          -2.5094678    -2.5157151    -2.2467128
C          -0.4187194    -2.9555823    -1.9570585
H          -0.3479150    -3.5938844    -2.8329580
C           0.7074608    -2.7462126    -1.1648190
H           1.6522086    -3.2200421    -1.4119785
C           0.6035614    -1.9239957    -0.0374102
C          -0.5996204    -1.3033086     0.2976521
H          -0.6532259    -0.6582284     1.1670176
C          -1.7226952    -1.5265160    -0.5027329
H          -2.6652703    -1.0513420    -0.2464463
S           2.1111432    -1.6745631     0.9073086
N           1.6234957    -0.6470511     2.1761000
H           2.1828138     0.1989263     2.1093143
O           2.5295668    -2.9773234     1.4249531
O           3.0269292    -0.8497989     0.1123065
C           0.8147123    -1.8461676     6.1447264
H           0.5978975    -2.1397411     7.1675658
C           1.6076141    -0.7276611     5.8854458
H           2.0152872    -0.1428788     6.7054564
C           1.8967494    -0.3577060     4.5731136
H           2.5285375     0.5055224     4.3759484
C           1.3747493    -1.0954355     3.5031158
C           0.5694190    -2.2121676     3.7590180
H           0.1613636    -2.7906070     2.9377475
C           0.3052337    -2.5853241     5.0756706
H          -0.3125322    -3.4592101     5.2633625
