20
210_C6H9NO2S2_16-0-1-2 (-165,) energy =   -1235.5376104
S           2.5510703    -1.8883948     0.3039003
N           3.9176013    -0.8623190     0.2984168
C           5.1377001    -1.5667498    -0.1354302
H           4.9390635    -2.0914259    -1.0702788
H           5.5017731    -2.2811886     0.6171696
H           5.9091475    -0.8108253    -0.3096052
C           4.1112413    -0.1442215     1.5672185
H           3.1939205     0.3810821     1.8422477
H           4.8973300     0.6000768     1.4089198
H           4.4040869    -0.8116569     2.3896453
O           2.4786370    -2.6907054     1.5338501
O           2.5313271    -2.5439014    -1.0048672
C          -0.6980880     0.3219729     1.1799218
H          -1.5260642     0.5151047     1.8526815
C           0.2962008    -0.6708946     1.4094212
H           0.3303377    -1.3386481     2.2617996
C           1.2352637    -0.7052148     0.4093337
S           0.9097203     0.4633679    -0.8400073
C          -0.4944689     1.0093871     0.0119291
H          -1.0907063     1.8132460    -0.4004900
20
210_C6H9NO2S2_16-0-1-2 (-150,) energy =   -1235.5381659
S           2.5225152    -1.9206147     0.4699876
N           3.8826729    -0.9006469     0.4383484
C           5.0596849    -1.4687160    -0.2346110
H           4.7579204    -1.9062974    -1.1856560
H           5.5688538    -2.2326009     0.3714893
H           5.7573036    -0.6469080    -0.4233033
C           4.1782175    -0.2647878     1.7274620
H           3.2706531     0.1887951     2.1336561
H           4.9069884     0.5315908     1.5489205
H           4.5839048    -0.9710360     2.4644779
O           2.4183499    -2.6455705     1.7434092
O           2.5268934    -2.6467315    -0.8015077
C          -0.7439861     0.3430910     1.1261879
H          -1.5883811     0.5775054     1.7645511
C           0.2389227    -0.6388753     1.4384504
H           0.2464372    -1.2576557     2.3276579
C           1.2030608    -0.7354617     0.4669015
S           0.9186805     0.3634204    -0.8539471
C          -0.5062882     0.9610914    -0.0733313
H          -1.0877846     1.7408769    -0.5482168
20
210_C6H9NO2S2_16-0-1-2 (-135,) energy =   -1235.5374280
S           2.5123768    -1.9316524     0.5654278
N           3.8780413    -0.9350864     0.5521468
C           4.9873820    -1.3350088    -0.3198983
H           4.5928881    -1.7218844    -1.2583799
H           5.6312905    -2.0993152     0.1395306
H           5.5892095    -0.4431761    -0.5228546
C           4.2619411    -0.3857477     1.8542642
H           3.3792215    -0.0031164     2.3719717
H           4.9445962     0.4513995     1.6785771
H           4.7551557    -1.1271765     2.4970647
O           2.3676194    -2.5947111     1.8663954
O           2.5468162    -2.7028721    -0.6792775
C          -0.7360536     0.4080807     1.0482696
H          -1.5733145     0.7047363     1.6699869
C           0.2320323    -0.5647424     1.4307244
H           0.2332436    -1.1124151     2.3654136
C           1.1872925    -0.7552585     0.4649571
S           0.9134309     0.2434475    -0.9355416
C          -0.4956833     0.9273741    -0.1960517
H          -1.0693966     1.6739372    -0.7300278
20
210_C6H9NO2S2_16-0-1-2 (-120,) energy =   -1235.5363069
S           2.5035991    -1.9606140     0.6307256
N           3.8736459    -0.9843375     0.6649290
C           4.8990653    -1.1711485    -0.3619309
H           4.4360026    -1.4983485    -1.2917328
H           5.6528308    -1.9148278    -0.0647924
H           5.3981252    -0.2100239    -0.5273909
C           4.3389291    -0.5384747     1.9770711
H           3.4885078    -0.2893843     2.6141812
H           4.9399823     0.3658652     1.8359508
H           4.9473317    -1.2980857     2.4866451
O           2.3225055    -2.5833070     1.9449483
O           2.5729163    -2.7502479    -0.6009811
C          -0.6907765     0.4804147     0.9883781
H          -1.4870143     0.8731271     1.6108364
C           0.2723907    -0.4697805     1.4360088
H           0.3079456    -0.9023920     2.4285579
C           1.1662446    -0.8065433     0.4521247
S           0.8379327     0.0215714    -1.0447880
C          -0.5070340     0.8391282    -0.3202428
H          -1.0949012     1.5282464    -0.9126989
20
210_C6H9NO2S2_16-0-1-2 (-105,) energy =   -1235.5355723
S           2.4846834    -1.9342248     0.7205448
N           3.8485216    -0.9427752     0.7798644
C           4.7459712    -0.9544344    -0.3769288
H           4.1731230    -1.0329186    -1.3007854
H           5.4631017    -1.7866205    -0.3410477
H           5.2985669    -0.0090123    -0.3854924
C           4.4943829    -0.7519021     2.0793766
H           3.7444577    -0.7031002     2.8682843
H           5.0405680     0.1969722     2.0511345
H           5.1994902    -1.5610152     2.3176084
O           2.2694950    -2.4811711     2.0623584
O           2.5989765    -2.7853034    -0.4667248
C          -0.6725805     0.5798505     0.8238253
H          -1.4365504     1.0803339     1.4083432
C           0.2943458    -0.3086443     1.3767292
H           0.3646254    -0.5790495     2.4234332
C           1.1387166    -0.8150771     0.4228143
S           0.7557674    -0.2282009    -1.1717250
C          -0.5408077     0.7260443    -0.5315002
H          -1.1450114     1.3248210    -1.2006494
20
210_C6H9NO2S2_16-0-1-2 (-90,) energy =   -1235.5360914
S           2.4962586    -1.9076038     0.8878206
N           3.8172220    -0.8371652     0.9967256
C           4.5473262    -0.6504379    -0.2632874
H           3.8512028    -0.4087730    -1.0697488
H           5.1290192    -1.5356832    -0.5523123
H           5.2227459     0.2002306    -0.1313175
C           4.6900205    -1.0366260     2.1630456
H           4.0842652    -1.1653154     3.0588222
H           5.3021374    -0.1356515     2.2709144
H           5.3553522    -1.9055415     2.0530475
O           2.2406244    -2.3974169     2.2444403
O           2.6836990    -2.8256979    -0.2418711
C          -0.6299595     0.6360683     0.6709389
H          -1.3498864     1.2641801     1.1837302
C           0.3773696    -0.1192338     1.3347364
H           0.5250024    -0.1494865     2.4077310
C           1.1509865    -0.8342967     0.4569521
S           0.6484287    -0.6113083    -1.1954802
C          -0.5997480     0.4753983    -0.6901176
H          -1.2524733     0.9222568    -1.4287796
20
210_C6H9NO2S2_16-0-1-2 (-75,) energy =   -1235.5368465
S           2.4767775    -1.9378049     0.9412668
N           3.7689222    -0.8474777     1.1415191
C           4.3485943    -0.3800994    -0.1234695
H           3.5579975    -0.0120571    -0.7820936
H           4.9120501    -1.1645442    -0.6467453
H           5.0172346     0.4554865     0.1045415
C           4.7719400    -1.2791745     2.1272726
H           4.2695687    -1.6040266     3.0378821
H           5.4009077    -0.4129819     2.3550013
H           5.4117105    -2.0927304     1.7545701
O           2.1758840    -2.4588396     2.2763491
O           2.7100755    -2.8524038    -0.1857044
C          -0.4956740     0.7624624     0.4947078
H          -1.1025053     1.5561205     0.9161798
C           0.5643217     0.1190315     1.1914129
H           0.8686895     0.3512796     2.2052460
C           1.1709922    -0.8496545     0.4321426
S           0.4464118    -1.0009282    -1.1437502
C          -0.6713053     0.2642419    -0.7712828
H          -1.4025988     0.5675003    -1.5093795
20
210_C6H9NO2S2_16-0-1-2 (-60,) energy =   -1235.5358961
S           2.4545163    -1.9363386     1.0772402
N           3.7730652    -0.8711505     1.2284145
C           4.2015702    -0.2286369    -0.0181789
H           3.3464400     0.2360930    -0.5127050
H           4.6843550    -0.9292358    -0.7148110
H           4.9127807     0.5603932     0.2449089
C           4.8758193    -1.4276877     2.0265428
H           4.4728347    -1.8670971     2.9394797
H           5.5406031    -0.6010767     2.2953074
H           5.4531612    -2.1860586     1.4777376
O           2.1238180    -2.3609939     2.4387893
O           2.6801926    -2.9394321     0.0243765
C          -0.4457832     0.7810556     0.3559945
H          -1.0465687     1.6155010     0.7002052
C           0.5863755     0.1741730     1.1238975
H           0.8728227     0.4765416     2.1245183
C           1.1905469    -0.8600968     0.4537543
S           0.4959408    -1.1228798    -1.1204240
C          -0.6046015     0.1867099    -0.8702883
H          -1.3163779     0.4422991    -1.6446749
20
210_C6H9NO2S2_16-0-1-2 (-45,) energy =   -1235.5332769
S           2.4275511    -1.8832170     1.2628506
N           3.8016466    -0.8701004     1.2988312
C           4.0961976    -0.1048272     0.0846001
H           3.2257017     0.4808530    -0.2125739
H           4.4171639    -0.7355141    -0.7588254
H           4.9058732     0.5899041     0.3292974
C           4.9647034    -1.5612073     1.8736116
H           4.6612058    -2.0758355     2.7870944
H           5.7094526    -0.8029527     2.1339478
H           5.4131039    -2.2844922     1.1773989
O           2.0789340    -2.1406770     2.6609366
O           2.6238522    -3.0094665     0.3349650
C          -0.4535349     0.7594888     0.2600896
H          -1.0951785     1.5870386     0.5412344
C           0.5215643     0.1820758     1.1201606
H           0.7187960     0.5005167     2.1373053
C           1.1949920    -0.8517343     0.5182469
S           0.6311224    -1.1555379    -1.0996554
C          -0.5026344     0.1428341    -0.9644136
H          -1.1561358     0.3705511    -1.7967700
20
210_C6H9NO2S2_16-0-1-2 (-30,) energy =   -1235.5303522
S           2.4069197    -1.8069916     1.4250529
N           3.8399729    -0.8716114     1.3464740
C           4.0398524     0.0097304     0.1944932
H           3.1911663     0.6843983     0.0808541
H           4.2060095    -0.5300457    -0.7514629
H           4.9276471     0.6141974     0.4062549
C           5.0115777    -1.6851104     1.6990971
H           4.7976710    -2.2551545     2.6060656
H           5.8392918    -1.0021085     1.9126908
H           5.3056919    -2.3774392     0.8978416
O           2.0365162    -1.8840939     2.8390459
O           2.5700736    -3.0429307     0.6423308
C          -0.4644409     0.7316638     0.1705882
H          -1.1510289     1.5402913     0.3947236
C           0.4572198     0.1880270     1.1084976
H           0.5648224     0.5142980     2.1364663
C           1.2041432    -0.8297019     0.5691910
S           0.7739444    -1.1617099    -1.0838720
C          -0.4010738     0.1067537    -1.0488933
H          -0.9961546     0.3083487    -1.9303669
20
210_C6H9NO2S2_16-0-1-2 (-15,) energy =   -1235.5280527
S           2.3943162    -1.7377828     1.5412439
N           3.8770214    -0.8906684     1.3639684
C           4.0156901     0.1138015     0.3091592
H           3.1850574     0.8189934     0.3419250
H           4.0872723    -0.3136431    -0.7039250
H           4.9373424     0.6681833     0.5141193
C           5.0264651    -1.7945584     1.4968817
H           4.8950231    -2.4352334     2.3715672
H           5.9142707    -1.1757253     1.6591405
H           5.1774068    -2.4277993     0.6116485
O           2.0067338    -1.6434770     2.9495934
O           2.5210984    -3.0572600     0.9037394
C          -0.4698112     0.6941276     0.0788191
H          -1.1887153     1.4870392     0.2519656
C           0.4148866     0.1920817     1.0740423
H           0.4598738     0.5366735     2.1005616
C           1.2154878    -0.8147446     0.5945355
S           0.8817101    -1.1863804    -1.0728984
C          -0.3256596     0.0514973    -1.1241000
H          -0.8781890     0.2213881    -2.0392774
20
210_C6H9NO2S2_16-0-1-2 (0,) energy =   -1235.5274468
S           2.4156388    -1.6357684     1.6575837
N           3.9375623    -0.8806952     1.3926851
C           4.0284001     0.2339279     0.4484731
H           3.2351155     0.9587607     0.6341886
H           3.9889126    -0.0794616    -0.6067314
H           4.9868246     0.7325448     0.6256910
C           5.0359114    -1.8491642     1.2741942
H           4.9737901    -2.5897258     2.0725336
H           5.9708879    -1.2928518     1.3930164
H           5.0444839    -2.3734725     0.3082534
O           2.0158558    -1.3557592     3.0374715
O           2.5116665    -3.0223754     1.1821659
C          -0.4372905     0.6664905    -0.0261234
H          -1.1772496     1.4510962     0.0852649
C           0.4159402     0.2248831     1.0239850
H           0.4139152     0.6122831     2.0359792
C           1.2527826    -0.7860566     0.6216246
S           0.9944626    -1.2311638    -1.0423317
C          -0.2334068    -0.0212805    -1.1944615
H          -0.7512886     0.0990496    -2.1373007
20
210_C6H9NO2S2_16-0-1-2 (15,) energy =   -1235.5291378
S           2.3976448    -1.5680547     1.8234665
N           3.9509490    -0.9120148     1.4920947
C           4.0110275     0.3054679     0.6798625
H           3.2887703     1.0403079     1.0393563
H           3.8356233     0.1213924    -0.3911281
H           5.0111068     0.7336416     0.8014676
C           4.9540191    -1.9101863     1.0931405
H           4.8978961    -2.7815670     1.7435684
H           5.9366742    -1.4432509     1.2145901
H           4.8421973    -2.2399274     0.0493523
O           2.0004189    -1.0929377     3.1494556
O           2.4569800    -3.0018029     1.5214075
C          -0.4134489     0.6033752    -0.1000575
H          -1.1519203     1.3965548    -0.0659592
C           0.4101660     0.2384487     1.0022114
H           0.3838536     0.6999381     1.9821210
C           1.2514998    -0.8027016     0.7000638
S           1.0354253    -1.3665298    -0.9352029
C          -0.1829100    -0.1679671    -1.2093221
H          -0.6739687    -0.1145147    -2.1724220
20
210_C6H9NO2S2_16-0-1-2 (30,) energy =   -1235.5328255
S           2.4062995    -1.5326831     1.9207861
N           3.9712635    -0.9597361     1.5309333
C           4.0225716     0.3608689     0.8959828
H           3.3892761     1.0636715     1.4412695
H           3.7192782     0.3408817    -0.1613709
H           5.0540608     0.7210517     0.9599633
C           4.8446643    -1.9363429     0.8620868
H           4.7704257    -2.9014153     1.3593519
H           5.8708910    -1.5663751     0.9534939
H           4.6099785    -2.0612703    -0.2066465
O           2.0373281    -0.9040669     3.1893145
O           2.4310835    -2.9877440     1.7582809
C          -0.3377791     0.5400897    -0.2044999
H          -1.0493906     1.3570969    -0.2472380
C           0.4625392     0.2445426     0.9353183
H           0.4425815     0.7903917     1.8709465
C           1.2689456    -0.8474409     0.7359349
S           1.0525562    -1.5394359    -0.8502586
C          -0.1220219    -0.3293671    -1.2415602
H          -0.6010867    -0.3420811    -2.2120334
20
210_C6H9NO2S2_16-0-1-2 (45,) energy =   -1235.5367337
S           2.4144446    -1.4966271     1.9922820
N           3.9757194    -0.9918917     1.5427796
C           4.0727118     0.4073287     1.1144664
H           3.5347041     1.0448345     1.8187920
H           3.6832281     0.5694600     0.0983326
H           5.1288378     0.6928851     1.1377382
C           4.7138692    -1.9110847     0.6652642
H           4.5996588    -2.9315899     1.0265711
H           5.7711008    -1.6318133     0.7143909
H           4.3852438    -1.8538074    -0.3848078
O           2.0811053    -0.7571324     3.2094222
O           2.4149817    -2.9587113     1.9384543
C          -0.2666669     0.4734926    -0.3067769
H          -0.9395676     1.3150958    -0.4278054
C           0.5264354     0.2529921     0.8550723
H           0.5360761     0.8883562     1.7325208
C           1.2789069    -0.8909128     0.7632934
S           1.0208833    -1.7220008    -0.7483745
C          -0.0983504    -0.5020941    -1.2542764
H          -0.5835964    -0.5867594    -2.2180535
20
210_C6H9NO2S2_16-0-1-2 (60,) energy =   -1235.5390998
S           2.4169376    -1.4744523     2.0287075
N           3.9681784    -1.0174253     1.5284119
C           4.1670302     0.4213545     1.3361940
H           3.7411740     0.9621882     2.1823382
H           3.7220038     0.7892981     0.3986358
H           5.2443719     0.6114984     1.3120579
C           4.5845099    -1.8540675     0.4930695
H           4.4175413    -2.9042594     0.7295829
H           5.6609991    -1.6566520     0.5039537
H           4.1983197    -1.6361149    -0.5153507
O           2.1187574    -0.6734375     3.2151413
O           2.4001537    -2.9372630     2.0365622
C          -0.2028641     0.4124290    -0.4071756
H          -0.8153342     1.2838127    -0.6105668
C           0.6119208     0.2680359     0.7515507
H           0.6942814     0.9985865     1.5474420
C           1.2731043    -0.9350172     0.7777401
S           0.9020308    -1.9137720    -0.6165299
C          -0.1412236    -0.6785390    -1.2343664
H          -0.6657373    -0.8375018    -2.1677203
20
210_C6H9NO2S2_16-0-1-2 (75,) energy =   -1235.5392366
S           2.4289498    -1.4048936     2.0587317
N           3.9673306    -1.0026290     1.5042091
C           4.3260497     0.4158726     1.5226262
H           3.9755378     0.8657393     2.4510421
H           3.9116840     0.9680931     0.6637231
H           5.4177004     0.4866228     1.4880097
C           4.4842913    -1.7700640     0.3706165
H           4.2234866    -2.8212300     0.4959925
H           5.5752632    -1.6808184     0.3718404
H           4.1030201    -1.4067322    -0.5964855
O           2.1660792    -0.5393666     3.2078514
O           2.3891765    -2.8647121     2.1405081
C          -0.1972176     0.3545933    -0.4635964
H          -0.7852680     1.2271151    -0.7257563
C           0.6463812     0.2810781     0.6810260
H           0.7760764     1.0738676     1.4082201
C           1.2677846    -0.9384391     0.7937780
S           0.8201807    -2.0202782    -0.4969995
C          -0.1976663    -0.8055076    -1.1931809
H          -0.7539712    -1.0254558    -2.0952213
20
210_C6H9NO2S2_16-0-1-2 (90,) energy =   -1235.5376669
S           2.4083889    -1.3504858     2.0295891
N           3.9312193    -0.9672349     1.4423653
C           4.4627861     0.3733300     1.6722230
H           4.1045888     0.7448561     2.6310816
H           4.1830504     1.0812570     0.8757216
H           5.5551808     0.3025759     1.7059175
C           4.4063527    -1.6787044     0.2596315
H           4.0551722    -2.7110386     0.2901699
H           5.5010353    -1.6892321     0.2819617
H           4.0782054    -1.2045378    -0.6780316
O           2.1589753    -0.4511735     3.1556083
O           2.3627025    -2.8079826     2.1564333
C          -0.2372602     0.2842428    -0.5566480
H          -0.8113106     1.1491098    -0.8702374
C           0.6348093     0.2758208     0.5688332
H           0.8027303     1.1189518     1.2287705
C           1.2305601    -0.9467033     0.7577917
S           0.7235314    -2.1114727    -0.4336966
C          -0.2843614    -0.9276881    -1.1949949
H          -0.8691540    -1.2009002    -2.0638524
20
210_C6H9NO2S2_16-0-1-2 (105,) energy =   -1235.5357840
S           2.7059323    -1.2176695    -0.3759155
N           3.9073516    -0.6915710     0.7007251
C           4.4642537    -1.7153738     1.5905296
H           3.6661585    -2.3365205     1.9980382
H           4.9635146    -1.2017614     2.4183720
H           5.1899142    -2.3657439     1.0827637
C           4.8975648     0.2526566     0.1704838
H           4.4113456     0.9902164    -0.4668368
H           5.6863962    -0.2463734    -0.4104067
H           5.3555645     0.7666481     1.0218147
O           2.6099717    -2.6779282    -0.2954570
O           2.9162719    -0.5193739    -1.6467222
C          -0.8095107    -0.5234273     1.4792694
H          -1.6457425    -0.9133220     2.0488252
C           0.2877687    -1.3170113     1.0359003
H           0.3998373    -2.3800201     1.2120633
C           1.2058233    -0.5838842     0.3292639
S           0.7382286     1.0869058     0.1792251
C          -0.6992352     0.7874462     1.0987969
H          -1.3903319     1.5984505     1.2887484
20
210_C6H9NO2S2_16-0-1-2 (120,) energy =   -1235.5356315
S           2.7132690    -1.3473813    -0.3356139
N           3.9064471    -0.8569878     0.7560681
C           4.6402632    -1.9026771     1.4730580
H           3.9673645    -2.7196751     1.7297476
H           5.0378219    -1.4643361     2.3945180
H           5.4759649    -2.3077793     0.8840554
C           4.6914382     0.3207441     0.3798654
H           4.0405757     1.0991198    -0.0217914
H           5.4645113     0.0923128    -0.3663097
H           5.1698828     0.7067437     1.2856433
O           2.5562349    -2.7960711    -0.1849888
O           2.9765396    -0.7181230    -1.6330996
C          -0.7491046    -0.3455227     1.4832387
H          -1.5615262    -0.6260558     2.1443752
C           0.3399271    -1.2033955     1.1572523
H           0.4672072    -2.2141328     1.5260949
C           1.2246228    -0.6120290     0.2927535
S           0.7314960     0.9978967    -0.1528745
C          -0.6671563     0.8720275     0.8603330
H          -1.3607271     1.7006628     0.9206350
20
210_C6H9NO2S2_16-0-1-2 (135,) energy =   -1235.5362286
S           2.6651725    -1.3894603    -0.3117223
N           3.8424990    -0.9365307     0.8206067
C           4.7322270    -1.9987134     1.3018350
H           4.1575394    -2.9071678     1.4765586
H           5.1687509    -1.6627422     2.2481105
H           5.5465885    -2.2213863     0.5965238
C           4.4907071     0.3517041     0.5643498
H           3.7402663     1.1120788     0.3358545
H           5.2108854     0.3071060    -0.2637125
H           5.0104628     0.6525964     1.4793432
O           2.4706600    -2.8328242    -0.1545469
O           2.9617975    -0.7878763    -1.6169202
C          -0.7324222    -0.1784393     1.5040071
H          -1.5089572    -0.3660960     2.2372011
C           0.3671723    -1.0516060     1.2729785
H           0.5373358    -1.9859261     1.7948493
C           1.1998666    -0.5869593     0.2871722
S           0.6423979     0.9183284    -0.3883696
C          -0.7108534     0.9242012     0.6893585
H          -1.4245153     1.7368740     0.6489229
20
210_C6H9NO2S2_16-0-1-2 (150,) energy =   -1235.5368202
S           2.6937744    -1.4746733    -0.2943901
N           3.8200213    -1.0702547     0.9127516
C           4.8501486    -2.0901323     1.1573710
H           4.3798900    -3.0699290     1.2333663
H           5.3309647    -1.8483982     2.1104231
H           5.6182462    -2.1160102     0.3703283
C           4.3419712     0.2968722     0.8084379
H           3.5154144     1.0044595     0.7064869
H           5.0269049     0.4251606    -0.0406782
H           4.8713969     0.5245113     1.7386110
O           2.4717684    -2.9173533    -0.1759634
O           3.0490533    -0.8731310    -1.5875939
C          -0.6321240    -0.0509511     1.5059927
H          -1.3439048    -0.1057041     2.3221791
C           0.5095024    -0.8915359     1.3914759
H           0.7799369    -1.6667054     2.0988906
C           1.2451503    -0.6163846     0.2663594
S           0.5458233     0.6670537    -0.6797875
C          -0.7384279     0.8362335     0.4651172
H          -1.5066394     1.5811770     0.3024969
20
210_C6H9NO2S2_16-0-1-2 (165,) energy =   -1235.5364106
S           2.6669599    -1.5762803    -0.2077529
N           3.7977075    -1.1510724     1.0026948
C           4.9543172    -2.0654435     1.0221965
H           4.6001663    -3.0961668     1.0490872
H           5.5192611    -1.8602455     1.9363911
H           5.6165318    -1.9269436     0.1551370
C           4.2047909     0.2607820     0.9497727
H           3.3232638     0.9051163     0.9794836
H           4.7951161     0.4985590     0.0539091
H           4.8049450     0.4646967     1.8416145
O           2.4033809    -3.0047568    -0.0256686
O           3.0589261    -1.0540922    -1.5261334
C          -0.6241488     0.0479994     1.4763316
H          -1.3458239     0.0593993     2.2854920
C           0.4919348    -0.8319366     1.4205737
H           0.7317277    -1.5770589     2.1701293
C           1.2476574    -0.6383454     0.2914575
S           0.5974802     0.6103081    -0.7325002
C          -0.6925081     0.8787005     0.3866818
H          -1.4369787     1.6349745     0.1735493
20
210_C6H9NO2S2_16-0-1-2 (180,) energy =   -1235.5354077
S           2.5572667    -1.8576699     0.1257562
N           3.9463546    -0.8484865     0.1935322
C           5.1649464    -1.6656211     0.0190423
H           5.0649833    -2.2760752    -0.8801659
H           5.3617875    -2.3137844     0.8844425
H           6.0058887    -0.9795691    -0.1167044
C           4.0326428    -0.0472647     1.4266679
H           3.1423734     0.5738487     1.5376904
H           4.8992184     0.6126307     1.3242057
H           4.1588098    -0.6663375     2.3269017
O           2.5051865    -2.7608471     1.2860071
O           2.5177778    -2.4018865    -1.2321716
C          -0.6392282     0.2962554     1.2849157
H          -1.4197897     0.4646350     2.0182609
C           0.3756213    -0.6928959     1.4183092
H           0.4744595    -1.3816862     2.2484956
C           1.2404628    -0.6945291     0.3528066
S           0.8153490     0.4975597    -0.8434541
C          -0.5248384     1.0133044     0.1223471
H          -1.1568913     1.8192684    -0.2278621
