15
368_C6H6N2O_0-4-10-9 (-165,) energy =    -416.9646884
C           2.2952171    -2.4244717    -0.9754253
H           2.9669454    -3.1197922    -0.4582131
H           2.6978253    -2.3019710    -1.9859312
H           1.2867880    -2.8403205    -1.0148503
C           2.2508175    -1.0962633    -0.2502896
C           5.8859687     0.9643027     0.1705911
H           6.8231933     1.5006010     0.2767363
C           4.7588711     1.2948093     0.9246642
H           4.7878277     2.1038925     1.6530259
N           3.5974311     0.6492019     0.8004408
C           3.5710249    -0.3511268    -0.0909590
N           4.5939546    -0.7659467    -0.8528346
C           5.7442991    -0.0959720    -0.7204580
H           6.5727715    -0.4254859    -1.3452702
O           1.2271691    -0.6265979     0.2024793
15
368_C6H6N2O_0-4-10-9 (-150,) energy =    -416.9639108
C           2.3009579    -2.4613645    -0.8956183
H           2.8870318    -3.0978445    -0.2209745
H           2.8128673    -2.4785133    -1.8629674
H           1.2880186    -2.8567956    -0.9909669
C           2.2358359    -1.0501729    -0.3529602
C           5.8837987     0.9559235     0.1773551
H           6.8234685     1.4819372     0.3098352
C           4.7797330     1.2062699     0.9932062
H           4.8304412     1.9349197     1.8008711
N           3.6127729     0.5767357     0.8348578
C           3.5629876    -0.3302127    -0.1501231
N           4.5664308    -0.6749706    -0.9703132
C           5.7182299    -0.0135586    -0.8082093
H           6.5293446    -0.2782925    -1.4844841
O           1.1948786    -0.4958940    -0.0655579
15
368_C6H6N2O_0-4-10-9 (-135,) energy =    -416.9626918
C           2.3071652    -2.4880188    -0.8146431
H           2.7312624    -3.0489863     0.0285336
H           2.9735465    -2.6448727    -1.6687557
H           1.3044505    -2.8604466    -1.0331685
C           2.2372015    -1.0198178    -0.4590983
C           5.8817971     0.9545540     0.1811066
H           6.8202394     1.4751440     0.3407553
C           4.8004095     1.1063786     1.0492290
H           4.8689766     1.7461394     1.9276711
N           3.6329384     0.4852394     0.8573479
C           3.5650999    -0.3149497    -0.2144860
N           4.5483736    -0.5698811    -1.0893599
C           5.6973035     0.0881232    -0.8932499
H           6.4915616    -0.0972014    -1.6144287
O           1.1964850    -0.4080004    -0.3339692
15
368_C6H6N2O_0-4-10-9 (-120,) energy =    -416.9611450
C           2.3079604    -2.5047330    -0.7083512
H           2.6403502    -2.9554842     0.2361840
H           3.0418171    -2.7806520    -1.4732318
H           1.3193685    -2.8885166    -0.9685541
C           2.2490462    -1.0019593    -0.5521765
C           5.8772194     0.9589573     0.1966223
H           6.8120963     1.4769122     0.3832643
C           4.8164257     1.0096821     1.1002510
H           4.8972491     1.5640446     2.0338768
N           3.6526968     0.3895808     0.8771487
C           3.5712180    -0.3024347    -0.2657636
N           4.5346042    -0.4600104    -1.1832599
C           5.6786928     0.1948163    -0.9508279
H           6.4583453     0.0907086    -1.7035594
O           1.2231585    -0.3564793    -0.6093390
15
368_C6H6N2O_0-4-10-9 (-105,) energy =    -416.9597590
C           2.2743681    -2.5321621    -0.5999437
H           2.5274555    -2.8674617     0.4141934
H           3.0497553    -2.9182664    -1.2719962
H           1.2959115    -2.9246806    -0.8850646
C           2.2563215    -1.0220283    -0.6407789
C           5.8559326     0.9515471     0.2030846
H           6.7820703     1.4757143     0.4142455
C           4.8205984     0.8868399     1.1341774
H           4.9117173     1.3542105     2.1132880
N           3.6688550     0.2530850     0.8838435
C           3.5729838    -0.3237527    -0.3194764
N           4.5094493    -0.3625251    -1.2752925
C           5.6447541     0.2943115    -1.0069136
H           6.4065605     0.2818310    -1.7845998
O           1.2684885    -0.3625353    -0.8877481
15
368_C6H6N2O_0-4-10-9 (-90,) energy =    -416.9592079
C           2.2246670    -2.5317063    -0.5240052
H           2.4127075    -2.7466965     0.5353762
H           3.0122168    -3.0324638    -1.1009463
H           1.2451364    -2.9168953    -0.8155308
C           2.2866898    -1.0416177    -0.7616744
C           5.8469275     0.9512827     0.1955342
H           6.7592527     1.4865201     0.4368420
C           4.8348029     0.7658012     1.1351745
H           4.9285585     1.1489706     2.1499391
N           3.7033388     0.1099002     0.8495880
C           3.5991514    -0.3525041    -0.4016562
N           4.5082505    -0.2572748    -1.3785862
C           5.6305983     0.4024539    -1.0668308
H           6.3760290     0.4878708    -1.8557460
O           1.3701599    -0.3873111    -1.2126484
15
368_C6H6N2O_0-4-10-9 (-75,) energy =    -416.9598479
C           2.1856619    -2.5062338    -0.4223588
H           2.3260288    -2.5975918     0.6611436
H           2.9649368    -3.1126509    -0.9021715
H           1.1998690    -2.8782602    -0.7096110
C           2.3389973    -1.0649796    -0.8465291
C           5.8496823     0.9658691     0.2074383
H           6.7456491     1.5154176     0.4763597
C           4.8710047     0.6531315     1.1479456
H           4.9715926     0.9508759     2.1903182
N           3.7648673    -0.0302137     0.8282852
C           3.6440982    -0.3781158    -0.4588182
N           4.5148367    -0.1385764    -1.4459748
C           5.6208836     0.5281915    -1.0961725
H           6.3416695     0.7179171    -1.8898315
O           1.5062184    -0.4512632    -1.4801967
15
368_C6H6N2O_0-4-10-9 (-60,) energy =    -416.9612917
C           2.1422689    -2.4714180    -0.3330421
H           2.2112829    -2.4286881     0.7594662
H           2.9206298    -3.1642817    -0.6789047
H           1.1614713    -2.8398332    -0.6406937
C           2.3887045    -1.1045082    -0.9281184
C           5.8434600     0.9751010     0.2098934
H           6.7226401     1.5390031     0.5034261
C           4.9072959     0.5380155     1.1436537
H           5.0238302     0.7512367     2.2048845
N           3.8251888    -0.1678230     0.7928872
C           3.6787868    -0.4057722    -0.5174238
N           4.5051985    -0.0317794    -1.5017541
C           5.5941149     0.6447299    -1.1219598
H           6.2828303     0.9356655    -1.9135327
O           1.6405900    -0.5637540    -1.7156157
15
368_C6H6N2O_0-4-10-9 (-45,) energy =    -416.9628105
C           2.1029775    -2.4269003    -0.2663584
H           2.0589297    -2.2440169     0.8120654
H           2.8936925    -3.1704621    -0.4314314
H           1.1509165    -2.8180596    -0.6302445
C           2.4444209    -1.1525613    -1.0052421
C           5.8437512     0.9777390     0.2135942
H           6.7098520     1.5502539     0.5286825
C           4.9565286     0.4238575     1.1326329
H           5.0990449     0.5502728     2.2045376
N           3.8926477    -0.2942608     0.7531004
C           3.7103772    -0.4268672    -0.5684209
N           4.4900512     0.0667586    -1.5391459
C           5.5625187     0.7529088    -1.1343614
H           6.2131850     1.1391806    -1.9173823
O           1.7824322    -0.7083921    -1.9202859
15
368_C6H6N2O_0-4-10-9 (-30,) energy =    -416.9639670
C           2.0565092    -2.3788449    -0.2084603
H           1.9054855    -2.0616728     0.8277184
H           2.8404582    -3.1468581    -0.1899992
H           1.1386019    -2.8016828    -0.6209584
C           2.4998857    -1.2142813    -1.0667751
C           5.8373627     0.9815157     0.2191099
H           6.6899139     1.5647664     0.5510954
C           5.0078363     0.3166450     1.1179791
H           5.1844584     0.3613584     2.1913475
N           3.9600325    -0.4118868     0.7154399
C           3.7350094    -0.4499695    -0.6060411
N           4.4620744     0.1520419    -1.5570741
C           5.5161685     0.8530463    -1.1329369
H           6.1207286     1.3306426    -1.9025139
O           1.9317852    -0.8865467    -2.0881293
15
368_C6H6N2O_0-4-10-9 (-15,) energy =    -416.9647041
C           2.0322409    -2.3190558    -0.1614215
H           1.7071398    -1.8570818     0.7764585
H           2.8107863    -3.0431178     0.1055408
H           1.1957241    -2.8289725    -0.6427272
C           2.5817003    -1.2745095    -1.1096200
C           5.8519043     0.9917920     0.2329942
H           6.6914265     1.5851079     0.5799997
C           5.0909627     0.2169542     1.1041510
H           5.3113499     0.1805069     2.1697350
N           4.0579717    -0.5211512     0.6825558
C           3.7821011    -0.4674235    -0.6289452
N           4.4441318     0.2426278    -1.5527230
C           5.4787642     0.9610576    -1.1116398
H           6.0256256     1.5324852    -1.8602472
O           2.1114307    -1.0711149    -2.2100166
15
368_C6H6N2O_0-4-10-9 (0,) energy =    -416.9649495
C           1.6852312    -1.6163586    -1.0166764
H           1.9209083    -1.2582900    -2.0246139
H           1.1644530    -0.7944005    -0.5132664
H           1.0389302    -2.4944128    -1.0689600
C           2.9492283    -1.9839378    -0.2683861
C           5.8321951     1.0363615     0.1876657
H           6.5776947     1.8157543     0.3061401
C           4.6331582     1.2634643    -0.4824017
H           4.4002030     2.2356807    -0.9135665
N           3.7101134     0.3070499    -0.6327975
C           3.9982417    -0.8901733    -0.1010794
N           5.1164010    -1.2174207     0.5612210
C           6.0232193    -0.2483731     0.6990668
H           6.9336744    -0.5100227     1.2363371
O           3.1430328    -3.0916053     0.1888228
15
368_C6H6N2O_0-4-10-9 (15,) energy =    -416.9647041
C           1.7198880    -1.6498107    -1.0824155
H           2.0622552    -1.4393453    -2.1022961
H           1.1917282    -0.7524938    -0.7438907
H           1.0461307    -2.5085779    -1.0832663
C           2.8969808    -1.9501871    -0.1789280
C           5.8351462     1.0279136     0.1831071
H           6.5919181     1.7986278     0.2857237
C           4.5888164     1.2932366    -0.3777722
H           4.3276927     2.2887106    -0.7330385
N           3.6530098     0.3467846    -0.5123358
C           3.9730796    -0.8766393    -0.0653288
N           5.1366261    -1.2413176     0.4905420
C           6.0599026    -0.2841747     0.6027827
H           7.0105364    -0.5780179     1.0454467
O           3.0076006    -2.9916270     0.4347184
15
368_C6H6N2O_0-4-10-9 (30,) energy =    -416.9639670
C           1.7422471    -1.7055259    -1.1350672
H           2.1786371    -1.7289492    -2.1419317
H           1.2798304    -0.7208896    -1.0178710
H           0.9961978    -2.4966823    -1.0402922
C           2.8269879    -1.9152698    -0.1012198
C           5.8252878     1.0076001     0.1830449
H           6.5964469     1.7653341     0.2746525
C           4.5415025     1.3162108    -0.2583026
H           4.2638582     2.3344822    -0.5254192
N           3.5879614     0.3855982    -0.3824345
C           3.9283565    -0.8642516    -0.0354413
N           5.1266937    -1.2721880     0.4039681
C           6.0684784    -0.3304334     0.4964544
H           7.0492599    -0.6590919     0.8368824
O           2.8581233    -2.8716469     0.6455640
15
368_C6H6N2O_0-4-10-9 (45,) energy =    -416.9628105
C           1.7916999    -1.7599956    -1.1841408
H           2.3169829    -1.9349739    -2.1322040
H           1.3635965    -0.7539664    -1.2390693
H           1.0057112    -2.5070620    -1.0578370
C           2.7723934    -1.8553934    -0.0371394
C           5.8319269     1.0032852     0.1782690
H           6.6184944     1.7462953     0.2584686
C           4.5234707     1.3521412    -0.1454949
H           4.2415926     2.3881190    -0.3259564
N           3.5497291     0.4407836    -0.2587911
C           3.8985715    -0.8300974    -0.0130344
N           5.1177876    -1.2784500     0.3130899
C           6.0789084    -0.3536186     0.3890695
H           7.0775124    -0.7130139     0.6326249
O           2.7138122    -2.7042360     0.8282247
15
368_C6H6N2O_0-4-10-9 (60,) energy =    -416.9612917
C           1.8396672    -1.8231226    -1.2252092
H           2.4441347    -2.1435705    -2.0839634
H           1.4609743    -0.8208811    -1.4538287
H           1.0125742    -2.5209294    -1.0791746
C           2.7070517    -1.7866920     0.0115631
C           5.8324121     0.9989818     0.1768616
H           6.6365423     1.7237666     0.2487390
C           4.5108045     1.3879647    -0.0266101
H           4.2370105     2.4377626    -0.1172501
N           3.5131972     0.5009789    -0.1277865
C           3.8566795    -0.7869149     0.0075566
N           5.0858404    -1.2760823     0.2115463
C           6.0685313    -0.3718720     0.2776514
H           7.0748065    -0.7615264     0.4230467
O           2.5507157    -2.5139911     0.9701232
15
368_C6H6N2O_0-4-10-9 (75,) energy =    -416.9598479
C           1.9034107    -1.9015666    -1.2544625
H           2.5898630    -2.3092957    -2.0079686
H           1.5496030    -0.9338651    -1.6291632
H           1.0625192    -2.5841189    -1.1140023
C           2.6424786    -1.7152882     0.0492725
C           5.8360096     0.9953730     0.1666635
H           6.6604320     1.6982863     0.2242770
C           4.5123347     1.4220575     0.0892459
H           4.2579509     2.4806284     0.0840485
N           3.4879655     0.5634274     0.0111079
C           3.8109497    -0.7355849     0.0335725
N           5.0390895    -1.2620573     0.1009685
C           6.0459712    -0.3827241     0.1579186
H           7.0503454    -0.8008119     0.2010190
O           2.3717141    -2.3058087     1.0738090
15
368_C6H6N2O_0-4-10-9 (90,) energy =    -416.9592079
C           1.9712706    -1.9888899    -1.2709556
H           2.7366043    -2.4422535    -1.9132792
H           1.6313528    -1.0724541    -1.7694237
H           1.1335829    -2.6780533    -1.1437913
C           2.5694747    -1.6475584     0.0730467
C           5.8341790     0.9788019     0.1574930
H           6.6797760     1.6570766     0.2017107
C           4.5202490     1.4402109     0.2066170
H           4.2969948     2.5028695     0.2858029
N           3.4682630     0.6139432     0.1557848
C           3.7563797    -0.6893371     0.0623287
N           4.9700250    -1.2468827    -0.0159662
C           6.0045181    -0.3988327     0.0363153
H           6.9968571    -0.8426466    -0.0240419
O           2.1634501    -2.0870761     1.1282670
15
368_C6H6N2O_0-4-10-9 (105,) energy =    -416.9597590
C           2.0452198    -2.0413212    -1.2753360
H           2.8737197    -2.5414444    -1.7905264
H           1.7438483    -1.1884387    -1.8972042
H           1.2036149    -2.7271194    -1.1564914
C           2.4993352    -1.5427245     0.0765805
C           5.8388890     0.9882717     0.1523638
H           6.7054885     1.6400623     0.1876537
C           4.5447360     1.4783630     0.3197439
H           4.3591753     2.5388132     0.4822501
N           3.4673987     0.6851192     0.2891930
C           3.7085787    -0.6142110     0.0806623
N           4.8968703    -1.1928097    -0.1320395
C           5.9595424    -0.3802767    -0.0782190
H           6.9319791    -0.8442667    -0.2343627
O           1.9493465    -1.8213214     1.1213939
15
368_C6H6N2O_0-4-10-9 (120,) energy =    -416.9611450
C           2.1270765    -2.1173267    -1.2413345
H           2.9912017    -2.6725891    -1.6217165
H           1.8880220    -1.3435313    -1.9828871
H           1.2690898    -2.7809994    -1.1160077
C           2.4625308    -1.4593633     0.0780383
C           5.8620863     0.9915868     0.1515374
H           6.7444590     1.6220882     0.1830650
C           4.5919794     1.4910428     0.4374971
H           4.4424163     2.5392919     0.6910952
N           3.4971892     0.7231748     0.4180388
C           3.6912852    -0.5596094     0.0885475
N           4.8512967    -1.1387394    -0.2486830
C           5.9357551    -0.3560853    -0.1924375
H           6.8857703    -0.8254272    -0.4424184
O           1.7972793    -1.5865012     1.0848321
15
368_C6H6N2O_0-4-10-9 (135,) energy =    -416.9626918
C           2.1753261    -2.2056030    -1.2030583
H           3.0537765    -2.8178165    -1.4304624
H           2.0245626    -1.5334248    -2.0579994
H           1.2911160    -2.8322405    -1.0711953
C           2.4085610    -1.3870507     0.0469334
C           5.8710808     0.9776883     0.1490844
H           6.7684757     1.5862924     0.1872983
C           4.6282535     1.4757091     0.5407900
H           4.5165700     2.5020142     0.8870271
N           3.5170432     0.7339615     0.5152150
C           3.6610395    -0.5205547     0.0689037
N           4.7913506    -1.0908177    -0.3720206
C           5.8959205    -0.3376987    -0.3071083
H           6.8210940    -0.8038031    -0.6419059
O           1.6452800    -1.3695848     0.9904202
15
368_C6H6N2O_0-4-10-9 (150,) energy =    -416.9639103
C           2.2114779    -2.2696745    -1.1593906
H           3.0446959    -2.9793926    -1.1737770
H           2.2486688    -1.7253478    -2.1112350
H           1.2601018    -2.7975398    -1.0713858
C           2.3546307    -1.3046901    -0.0024544
C           5.8746272     0.9755662     0.1502519
H           6.7858340     1.5625762     0.1986582
C           4.6634010     1.4555691     0.6500231
H           4.5921468     2.4456490     1.0977818
N           3.5363588     0.7404944     0.6095325
C           3.6281574    -0.4698686     0.0422548
N           4.7263132    -1.0176446    -0.4985448
C           5.8483226    -0.2923958    -0.4244026
H           6.7456660    -0.7419401    -0.8463301
O           1.5070333    -1.1646336     0.8550892
15
368_C6H6N2O_0-4-10-9 (165,) energy =    -416.9646886
C           2.2505282    -2.3288091    -1.1070221
H           3.0497862    -3.0587735    -0.9439464
H           2.4077384    -1.9189684    -2.1117510
H           1.2743287    -2.8138747    -1.0508078
C           2.3112830    -1.2258312    -0.0718003
C           5.8818243     0.9731606     0.1582935
H           6.8048814     1.5398210     0.2225892
C           4.7003063     1.4203607     0.7517886
H           4.6671602     2.3625635     1.2968759
N           3.5590949     0.7313998     0.6873248
C           3.6043785    -0.4226127     0.0075106
N           4.6742416    -0.9380920    -0.6158592
C           5.8098561    -0.2365447    -0.5270234
H           6.6814851    -0.6585918    -1.0244927
O           1.3848749    -0.9644507     0.6677196
15
368_C6H6N2O_0-4-10-9 (180,) energy =    -416.9649506
C           2.2791477    -2.3865034    -1.0504300
H           3.0265910    -3.1109288    -0.7092350
H           2.5574820    -2.1186217    -2.0755201
H           1.2844186    -2.8356160    -1.0355322
C           2.2754330    -1.1615978    -0.1603317
C           5.8837884     0.9645371     0.1604392
H           6.8150085     1.5150577     0.2442427
C           4.7306430     1.3617756     0.8394143
H           4.7303728     2.2431312     1.4791472
N           3.5780926     0.6958921     0.7465788
C           3.5838947    -0.3878127    -0.0417651
N           4.6289803    -0.8594246    -0.7378840
C           5.7739641    -0.1762112    -0.6300324
H           6.6227833    -0.5582685    -1.1947569
O           1.2890398    -0.7906321     0.4421411
