24
036_C11H11NO_2-0-19-17 (-165,) energy =    -555.7307157
C           2.7303185    -1.4925761    -1.4557363
H           3.2463015    -1.7624004    -2.3948988
C           1.4335476    -0.8118632    -1.8352908
H           1.5217735     0.1499133    -2.3318833
C           0.2264762    -1.3450053    -1.6430608
H          -0.6537419    -0.8030090    -1.9845441
C          -0.0149782    -2.6533749    -0.9426165
H          -0.6942406    -2.5010515    -0.0872499
H          -0.5593986    -3.3479940    -1.6050186
C           1.2595235    -3.2954882    -0.4708433
H           1.1680211    -4.2307085     0.0802772
C           2.4709744    -2.7850235    -0.6957912
H           3.3523834    -3.3055964    -0.3248304
C           5.6608506     0.7746323     0.8292510
H           6.3316523     1.3779557     1.4314447
C           6.0333234    -0.3620517     0.1775632
H           7.0518934    -0.7260508     0.2347451
C           5.0411895    -1.0519598    -0.5762321
H           5.3370088    -1.9599876    -1.1000011
C           3.7401967    -0.6275264    -0.6864035
C           3.3236711     0.5816994     0.0248625
O           2.2068788     1.0925913     0.0577614
N           4.3721680     1.2083762     0.7360628
H           4.0752127     2.0458567     1.2238300
24
036_C11H11NO_2-0-19-17 (-150,) energy =    -555.7325660
C           2.7776765    -1.5912789    -1.4064439
H           3.3295011    -1.9560677    -2.2910855
C           1.5276539    -0.8979813    -1.9020619
H           1.6802082     0.0193308    -2.4670275
C           0.2922954    -1.3659760    -1.7249276
H          -0.5502520    -0.8192516    -2.1449146
C          -0.0298360    -2.5998754    -0.9281866
H          -0.7356916    -2.3459894    -0.1200201
H          -0.5754583    -3.3284485    -1.5519903
C           1.1960236    -3.2472003    -0.3460368
H           1.0414141    -4.1297980     0.2735574
C           2.4363749    -2.8031329    -0.5546428
H           3.2822808    -3.3209624    -0.1049893
C           5.6526121     0.7952406     0.8086418
H           6.3067284     1.4214742     1.4058442
C           6.0871875    -0.2281376     0.0217048
H           7.1415039    -0.4682093    -0.0423115
C           5.1125610    -0.9662438    -0.7107138
H           5.4551718    -1.7841306    -1.3431877
C           3.7693206    -0.6898063    -0.6684890
C           3.2856600     0.3829251     0.2024391
O           2.1231310     0.7273397     0.3931689
N           4.3198280     1.0764088     0.8715386
H           3.9795523     1.8218755     1.4681512
24
036_C11H11NO_2-0-19-17 (-135,) energy =    -555.7345925
C           1.8196898    -0.6974504    -0.5770458
H           1.1640569     0.1750914    -0.4193226
C           1.2610777    -1.8559539     0.2216704
H           1.0950498    -1.6683996     1.2817353
C           0.9674761    -3.0470418    -0.2977622
H           0.5628975    -3.8288049     0.3432336
C           1.2047820    -3.4023849    -1.7388055
H           2.0078942    -4.1557761    -1.7974858
H           0.3157477    -3.8961104    -2.1625484
C           1.5773497    -2.2088616    -2.5748909
H           1.6302912    -2.3575820    -3.6526831
C           1.8428409    -1.0065884    -2.0626376
H           2.1172246    -0.1799360    -2.7164587
C           5.7942024     0.6267809     0.5598246
H           6.8146392     0.8749571     0.8315050
C           4.8059689     1.5486182     0.3889177
H           5.0066876     2.6049582     0.5203122
C           3.5066835     1.0784694     0.0374136
H           2.7113901     1.8100056    -0.0975610
C           3.2074934    -0.2508448    -0.1195548
C           4.2754020    -1.2474151    -0.0004399
O           4.1973541    -2.4561313    -0.1978828
N           5.5187739    -0.6976282     0.3846052
H           6.2525491    -1.3911556     0.4745464
24
036_C11H11NO_2-0-19-17 (-120,) energy =    -555.7358727
C           1.8204543    -0.6636404    -0.6859319
H           1.1889658     0.2352370    -0.5888276
C           1.2314300    -1.7448751     0.1964807
H           1.0476035    -1.4686602     1.2337953
C           0.9513573    -2.9754745    -0.2319032
H           0.5340955    -3.7049806     0.4607957
C           1.2048516    -3.4376213    -1.6405517
H           2.0283659    -4.1706108    -1.6374437
H           0.3292827    -3.9846729    -2.0241774
C           1.5546822    -2.3059604    -2.5676767
H           1.5911561    -2.5321192    -3.6324946
C           1.8304628    -1.0720233    -2.1452544
H           2.0961523    -0.2927604    -2.8580966
C           5.7667376     0.5833190     0.6189046
H           6.7806065     0.8108832     0.9302630
C           4.7591695     1.4993080     0.5803069
H           4.9365395     2.5282114     0.8690014
C           3.4721421     1.0605860     0.1510160
H           2.6618491     1.7871497     0.1185682
C           3.2082819    -0.2332598    -0.2179481
C           4.2854567    -1.2265857    -0.1938426
O           4.2172776    -2.4111592    -0.5085494
N           5.5215618    -0.7069189     0.2497336
H           6.2640971    -1.3966770     0.2678681
24
036_C11H11NO_2-0-19-17 (-105,) energy =    -555.7353435
C           1.8649978    -0.6507408    -0.7961487
H           1.2504431     0.2651073    -0.7617044
C           1.2491275    -1.6514746     0.1606747
H           1.0778667    -1.3002187     1.1769949
C           0.9445288    -2.9032463    -0.1837295
H           0.5145482    -3.5778487     0.5555269
C           1.1719735    -3.4589610    -1.5638136
H           1.9798301    -4.2084430    -1.5250528
H           0.2801079    -4.0106997    -1.8999740
C           1.5351892    -2.3971623    -2.5656176
H           1.5496225    -2.6915372    -3.6139772
C           1.8599655    -1.1506505    -2.2243522
H           2.1405991    -0.4262436    -2.9874852
C           5.7592716     0.5650978     0.6820560
H           6.7614089     0.7861510     1.0335174
C           4.7157908     1.4372200     0.7611237
H           4.8495315     2.4208205     1.1948033
C           3.4513054     1.0156237     0.2545451
H           2.6136351     1.7089037     0.3121570
C           3.2464068    -0.2154817    -0.3131518
C           4.3485817    -1.1797543    -0.3639523
O           4.3118952    -2.3348334    -0.7777092
N           5.5675528    -0.6700656     0.1354500
H           6.3297142    -1.3369447     0.0924042
24
036_C11H11NO_2-0-19-17 (-90,) energy =    -555.7335371
C           1.9772293    -0.7261946    -0.8706349
H           1.3392176     0.1744475    -0.9334634
C           1.3285575    -1.6529821     0.1399561
H           1.2791088    -1.2834829     1.1629324
C           0.8336080    -2.8531640    -0.1665540
H           0.3755392    -3.4598711     0.6137329
C           0.8600888    -3.4367443    -1.5531623
H           1.3978284    -4.3994545    -1.5400322
H          -0.1649524    -3.6965975    -1.8672509
C           1.4958921    -2.5186194    -2.5611770
H           1.5431559    -2.8766419    -3.5883368
C           2.0217703    -1.3331163    -2.2541736
H           2.4918763    -0.7290302    -3.0280640
C           5.7267566     0.7115380     0.7751910
H           6.6974587     0.9936943     1.1686920
C           4.5919802     1.4439582     0.9523720
H           4.6133582     2.3700208     1.5138813
C           3.3837036     0.9545079     0.3751552
H           2.4735718     1.5369878     0.5110560
C           3.3169908    -0.2049616    -0.3541468
C           4.5196427    -1.0252781    -0.5126119
O           4.6129939    -2.1105951    -1.0773379
N           5.6749782    -0.4520560     0.0654658
H           6.5064621    -1.0197013    -0.0523456
24
036_C11H11NO_2-0-19-17 (-75,) energy =    -555.7316948
C           2.0694672    -0.7875986    -0.9630856
H           1.4557863     0.1176803    -1.1288149
C           1.3453884    -1.6118620     0.0874881
H           1.3089467    -1.1853178     1.0884812
C           0.7665639    -2.7876813    -0.1609287
H           0.2550339    -3.3136852     0.6443697
C           0.7646766    -3.4459415    -1.5136039
H           1.1786870    -4.4647930    -1.4322477
H          -0.2750878    -3.5983736    -1.8503852
C           1.5368013    -2.6636515    -2.5412629
H           1.6097584    -3.1012665    -3.5354004
C           2.1493234    -1.5063072    -2.2897502
H           2.7117925    -1.0092969    -3.0758581
C           5.7508083     0.7126558     0.7936552
H           6.7053959     1.0176297     1.2088377
C           4.5641224     1.3120839     1.0902852
H           4.5222594     2.1481322     1.7777150
C           3.3870267     0.8038500     0.4687335
H           2.4360955     1.2812732     0.7017386
C           3.3931988    -0.2457245    -0.4151348
C           4.6577293    -0.9166906    -0.7195110
O           4.8367795    -1.8843579    -1.4539917
N           5.7745466    -0.3372545    -0.0758155
H           6.6473567    -0.8042388    -0.2940260
24
036_C11H11NO_2-0-19-17 (-60,) energy =    -555.7298255
C           2.0808128    -0.7563644    -1.0341359
H           1.5271219     0.1605334    -1.3123356
C           1.2521758    -1.4541459     0.0318222
H           1.1589408    -0.9395786     0.9861716
C           0.6504222    -2.6315475    -0.1431314
H           0.0699561    -3.0617079     0.6722939
C           0.7156027    -3.4186891    -1.4225616
H           1.1054557    -4.4301535    -1.2185350
H          -0.3050907    -3.5909717    -1.8046544
C           1.5554505    -2.7447343    -2.4730420
H           1.6499870    -3.2597358    -3.4275517
C           2.1890155    -1.5845622    -2.2942436
H           2.7879137    -1.1683584    -3.0971032
C           5.7360362     0.7209327     0.8242366
H           6.6835049     1.0307954     1.2518293
C           4.5232755     1.1843306     1.2359459
H           4.4492184     1.9088752     2.0376858
C           3.3617790     0.6820526     0.5827029
H           2.3930699     1.0552446     0.9110001
C           3.4006818    -0.2307190    -0.4423452
C           4.6981390    -0.7424508    -0.8867001
O           4.9262894    -1.5622258    -1.7735699
N           5.7948990    -0.1888098    -0.1884615
H           6.6878249    -0.5503794    -0.5038291
24
036_C11H11NO_2-0-19-17 (-45,) energy =    -555.7283075
C           2.0846369    -0.7153617    -1.1234591
H           1.6386032     0.2141044    -1.5242705
C           1.1135619    -1.2709158    -0.0947137
H           0.8622470    -0.6271176     0.7450081
C           0.5509486    -2.4784413    -0.1646415
H          -0.1328556    -2.7936581     0.6226874
C           0.7890469    -3.4457845    -1.2891781
H           1.2458487    -4.3715800    -0.8991514
H          -0.1776799    -3.7726917    -1.7068367
C           1.6459694    -2.8556712    -2.3741063
H           1.7813029    -3.4564504    -3.2720775
C           2.2320558    -1.6592389    -2.2999179
H           2.8369846    -1.3061961    -3.1251817
C           5.7435701     0.6324745     0.8639103
H           6.6911441     0.9231518     1.3044607
C           4.5264190     0.9448631     1.3872921
H           4.4456585     1.5207383     2.3011318
C           3.3661150     0.4818892     0.7034175
H           2.4017156     0.7380980     1.1335348
C           3.4032820    -0.2570356    -0.4544934
C           4.7090541    -0.5568823    -1.0494146
O           4.9517714    -1.1422087    -2.1039618
N           5.8036885    -0.0883717    -0.2900675
H           6.6979819    -0.3150691    -0.7099733
24
036_C11H11NO_2-0-19-17 (-30,) energy =    -555.7300469
C           2.0857688    -0.6709060    -1.2134571
H           1.7837106     0.2526875    -1.7371585
C           0.9790852    -1.0694371    -0.2542143
H           0.6006646    -0.2934795     0.4094833
C           0.4292946    -2.2833025    -0.1901100
H          -0.3595241    -2.4734236     0.5365574
C           0.8160546    -3.4181861    -1.0947588
H           1.2940079    -4.2238223    -0.5109544
H          -0.0911933    -3.8832451    -1.5129593
C           1.7211451    -2.9631294    -2.2056088
H           1.9111212    -3.6759199    -3.0068398
C           2.2752864    -1.7508588    -2.2692906
H           2.9184679    -1.4922895    -3.1000382
C           5.7437496     0.5216344     0.8659439
H           6.6962470     0.7967646     1.3057701
C           4.5453531     0.6271456     1.5019357
H           4.4869409     1.0087542     2.5140539
C           3.3742524     0.2106998     0.8041255
H           2.4284360     0.2845181     1.3314675
C           3.3915938    -0.3177487    -0.4637950
C           4.6631971    -0.3175925    -1.1947839
O           4.8538415    -0.5779640    -2.3829633
N           5.7773095     0.0467559    -0.4112553
H           6.6492978     0.0184517    -0.9274179
24
036_C11H11NO_2-0-19-17 (-15,) energy =    -555.7343242
C           2.1302203    -0.7241960    -1.2610404
H           1.8971576     0.1531635    -1.8880867
C           0.9600260    -1.0080663    -0.3441807
H           0.5945845    -0.1709481     0.2501809
C           0.3399308    -2.1851462    -0.2409609
H          -0.5001814    -2.2867547     0.4448843
C           0.7165391    -3.3971885    -1.0444096
H           1.0730743    -4.1989609    -0.3749389
H          -0.1829272    -3.8190924    -1.5218184
C           1.7552832    -3.0829062    -2.0850656
H           1.9958817    -3.8759587    -2.7919808
C           2.3726792    -1.9050064    -2.1934895
H           3.1123549    -1.7420481    -2.9682225
C           5.7395289     0.5492914     0.8205790
H           6.6846619     0.8671587     1.2471413
C           4.5813149     0.4337025     1.5256066
H           4.5532666     0.6676477     2.5829920
C           3.4112961    -0.0054287     0.8374848
H           2.4945684    -0.1064281     1.4105270
C           3.4090279    -0.3566205    -0.4887852
C           4.6245276    -0.1283642    -1.2751889
O           4.7471390    -0.2220432    -2.4974044
N           5.7424045     0.2567217    -0.5125260
H           6.5783090     0.3970651    -1.0684849
24
036_C11H11NO_2-0-19-17 (0,) energy =    -555.7380548
C           2.1641359    -0.7645491    -1.2899717
H           1.9728504     0.0626016    -1.9941957
C           0.9551649    -0.9578102    -0.4051663
H           0.6124324    -0.0804793     0.1432123
C           0.2867053    -2.1059190    -0.2763784
H          -0.5831432    -2.1476796     0.3779872
C           0.6484861    -3.3673751    -1.0095228
H           0.9028316    -4.1626587    -0.2880515
H          -0.2376288    -3.7536093    -1.5399895
C           1.7796785    -3.1609179    -1.9794340
H           2.0481707    -4.0102778    -2.6063533
C           2.4438037    -2.0119048    -2.1158374
H           3.2462174    -1.9186947    -2.8401704
C           5.7281866     0.5637337     0.8060076
H           6.6632331     0.9104138     1.2322527
C           4.6184042     0.2699502     1.5375026
H           4.6259650     0.3771715     2.6155418
C           3.4515498    -0.1797096     0.8497502
H           2.5676447    -0.4205220     1.4337495
C           3.4162831    -0.3556021    -0.5087698
C           4.5840783     0.0152072    -1.3085093
O           4.6613376     0.0055229    -2.5382089
N           5.6948493     0.4273662    -0.5527114
H           6.5009077     0.6748115    -1.1152505
24
036_C11H11NO_2-0-19-17 (15,) energy =    -555.7401436
C           2.1867943    -0.7903551    -1.3265521
H           2.0279662    -0.0158370    -2.0948452
C           0.9486452    -0.9032104    -0.4717502
H           0.6245494     0.0082188     0.0299683
C           0.2459595    -2.0272020    -0.3125533
H          -0.6447292    -2.0184630     0.3144896
C           0.5982229    -3.3312366    -0.9750129
H           0.7760292    -4.1055231    -0.2093475
H          -0.2708733    -3.7041084    -1.5423212
C           1.7918557    -3.2146547    -1.8844812
H           2.0759674    -4.1090957    -2.4373860
C           2.4903427    -2.0903968    -2.0515105
H           3.3355283    -2.0571807    -2.7331136
C           5.7141360     0.5814131     0.7843402
H           6.6394439     0.9486467     1.2146174
C           4.6613388     0.1244523     1.5173545
H           4.7116408     0.1102682     2.5995110
C           3.4985648    -0.3302412     0.8259619
H           2.6551339    -0.6988483     1.4042124
C           3.4136211    -0.3327289    -0.5407807
C           4.5324913     0.1645281    -1.3382274
O           4.5724826     0.2332144    -2.5677037
N           5.6343857     0.5939864    -0.5797761
H           6.4080950     0.9366909    -1.1377100
24
036_C11H11NO_2-0-19-17 (30,) energy =    -555.7405143
C           2.2280620    -0.8086123    -1.3754459
H           2.1145959    -0.0868995    -2.1996505
C           0.9556183    -0.8367705    -0.5652291
H           0.6420053     0.1109900    -0.1293528
C           0.2206818    -1.9338412    -0.3662298
H          -0.6926767    -1.8694937     0.2238585
C           0.5672801    -3.2834247    -0.9359862
H           0.6852279    -4.0163514    -0.1197777
H          -0.2831967    -3.6665889    -1.5243145
C           1.8073518    -3.2542045    -1.7895627
H           2.0967303    -4.1899104    -2.2660544
C           2.5392725    -2.1575737    -1.9941491
H           3.4184851    -2.1893234    -2.6333419
C           5.7000460     0.6063991     0.7892682
H           6.6090735     0.9927437     1.2372270
C           4.7120342    -0.0173571     1.4897463
H           4.8027642    -0.1564638     2.5603629
C           3.5639631    -0.4776123     0.7787928
H           2.7681814    -0.9767325     1.3267485
C           3.4260065    -0.3095829    -0.5731125
C           4.4869232     0.3382615    -1.3395895
O           4.4942332     0.5194963    -2.5578013
N           5.5735047     0.7729977    -0.5610746
H           6.3069287     1.2254123    -1.0947108
24
036_C11H11NO_2-0-19-17 (45,) energy =    -555.7400711
C           2.2960504    -0.8576315    -1.4348847
H           2.2353197    -0.1991029    -2.3143797
C           0.9941875    -0.7836096    -0.6727658
H           0.7089224     0.2016293    -0.3070816
C           0.2069603    -1.8353338    -0.4328190
H          -0.7210984    -1.6966021     0.1202729
C           0.5130131    -3.2312265    -0.9063532
H           0.5424449    -3.9225751    -0.0472675
H          -0.3197571    -3.6039202    -1.5262813
C           1.8014080    -3.3132294    -1.6808583
H           2.0812103    -4.2932753    -2.0648714
C           2.5869346    -2.2618780    -1.9233841
H           3.5014878    -2.3827220    -2.5006759
C           5.6860733     0.6578475     0.7922388
H           6.5671170     1.0802768     1.2630957
C           4.7941817    -0.1489948     1.4329346
H           4.9381804    -0.4083585     2.4749245
C           3.6756476    -0.6374445     0.6958832
H           2.9540685    -1.2807628     1.1946126
C           3.4690031    -0.3187670    -0.6200565
C           4.4255430     0.5309279    -1.3243231
O           4.3694110     0.8691948    -2.5067903
N           5.4926144     0.9749772    -0.5220975
H           6.1532198     1.5688999    -1.0100967
24
036_C11H11NO_2-0-19-17 (60,) energy =    -555.7397965
C           2.3695827    -0.9379974    -1.4930514
H           2.3693104    -0.3526482    -2.4241692
C           1.0427011    -0.7430445    -0.7927257
H           0.7956568     0.2805849    -0.5164325
C           0.1949905    -1.7332672    -0.5035327
H          -0.7423374    -1.5071720     0.0030773
C           0.4451661    -3.1751774    -0.8556831
H           0.3893751    -3.8009331     0.0509097
H          -0.3722046    -3.5497179    -1.4948417
C           1.7666891    -3.3825319    -1.5458311
H           2.0189905    -4.4042047    -1.8265420
C           2.6137626    -2.3920338    -1.8352401
H           3.5508465    -2.6101687    -2.3445009
C           5.6569843     0.7076761     0.7974028
H           6.4994014     1.1772996     1.2936200
C           4.8971144    -0.2759164     1.3566918
H           5.1142182    -0.6382912     2.3543202
C           3.8173034    -0.8079883     0.5936334
H           3.2013021    -1.5932791     1.0264310
C           3.5219382    -0.3665514    -0.6690958
C           4.3279857     0.6858741    -1.2820062
O           4.1730121     1.1701337    -2.4030545
N           5.3714413     1.1539095    -0.4609819
H           5.9299364     1.8852914    -0.8857850
24
036_C11H11NO_2-0-19-17 (75,) energy =    -555.7399502
C           2.4503242    -1.0214788    -1.5331813
H           2.5157863    -0.5053455    -2.5022764
C           1.1031385    -0.7059711    -0.9162750
H           0.8992815     0.3477543    -0.7350777
C           0.1935147    -1.6277954    -0.5931726
H          -0.7512764    -1.3166858    -0.1495436
C           0.3840743    -3.1036756    -0.8195851
H           0.2575257    -3.6520167     0.1290674
H          -0.4221593    -3.4897017    -1.4660245
C           1.7218826    -3.4288863    -1.4279089
H           1.9314209    -4.4802012    -1.6209734
C           2.6323748    -2.5065144    -1.7494856
H           3.5784375    -2.8116275    -2.1939137
C           5.6271189     0.7322915     0.8311192
H           6.4267042     1.2454382     1.3543535
C           5.0206906    -0.3988802     1.2892652
H           5.3260743    -0.8439784     2.2286051
C           3.9809771    -0.9726850     0.5006836
H           3.4894979    -1.8770802     0.8526060
C           3.5795839    -0.4310956    -0.6917857
C           4.2118714     0.7875970    -1.1897451
O           3.9361320     1.3835698    -2.2310329
N           5.2305941     1.2823277    -0.3541880
H           5.6722807     2.1255693    -0.7022205
24
036_C11H11NO_2-0-19-17 (90,) energy =    -555.7403797
C           2.5198490    -1.0972218    -1.5690280
H           2.6510840    -0.6514469    -2.5669050
C           1.1591346    -0.6746804    -1.0508971
H           0.9961071     0.3983619    -0.9766812
C           0.1988987    -1.5301346    -0.6951555
H          -0.7516848    -1.1472317    -0.3263779
C           0.3382117    -3.0264356    -0.7857244
H           0.1656009    -3.4847525     0.2027160
H          -0.4642007    -3.4389528    -1.4203061
C           1.6775273    -3.4539404    -1.3233350
H           1.8413047    -4.5246596    -1.4387153
C           2.6407933    -2.5983875    -1.6746943
H           3.5848552    -2.9769989    -2.0642373
C           5.5983179     0.7580052     0.8444307
H           6.3609248     1.3070995     1.3859456
C           5.1533608    -0.4792362     1.2015231
H           5.5596748    -0.9778226     2.0733640
C           4.1460423    -1.0937026     0.4000476
H           3.7830874    -2.0820299     0.6727400
C           3.6217531    -0.4851958    -0.7090569
C           4.0709163     0.8514948    -1.0886105
O           3.6516906     1.5166007    -2.0363813
N           5.0759435     1.3756637    -0.2565952
H           5.3887289     2.3021277    -0.5233529
24
036_C11H11NO_2-0-19-17 (105,) energy =    -555.7404456
C           2.5597144    -1.1645717    -1.5694932
H           2.7583054    -0.7819152    -2.5841504
C           1.1837566    -0.6691350    -1.1657199
H           1.0501413     0.4092031    -1.1855482
C           0.1840633    -1.4748347    -0.8031605
H          -0.7763807    -1.0454766    -0.5210673
C           0.2896046    -2.9764412    -0.7713679
H           0.0813157    -3.3509156     0.2453639
H          -0.5052963    -3.4213621    -1.3929780
C           1.6314650    -3.4751094    -1.2361902
H           1.7608957    -4.5551796    -1.2936139
C           2.6363046    -2.6708790    -1.5917530
H           3.5784557    -3.1005567    -1.9303671
C           5.5807782     0.7658530     0.8602167
H           6.3197086     1.3391037     1.4093960
C           5.2812947    -0.5373750     1.1191068
H           5.7900665    -1.0693549     1.9140626
C           4.2875783    -1.1772966     0.3194501
H           4.0396750    -2.2167609     0.5199698
C           3.6296159    -0.5254992    -0.6891083
C           3.9377092     0.8735742    -0.9739327
O           3.4135593     1.5673299    -1.8465812
N           4.9302587     1.4238797    -0.1454025
H           5.1422218     2.3943239    -0.3470362
24
036_C11H11NO_2-0-19-17 (120,) energy =    -555.7391733
C           2.5813379    -1.2146805    -1.5356874
H           2.8456498    -0.8894417    -2.5576577
C           1.1902119    -0.6732487    -1.2576066
H           1.0789919     0.4019490    -1.3547160
C           0.1568787    -1.4442269    -0.9140527
H          -0.8146909    -0.9882850    -0.7276493
C           0.2363857    -2.9419182    -0.7793831
H          -0.0214147    -3.2466817     0.2493824
H          -0.5373343    -3.4165379    -1.4054764
C           1.5883730    -3.4880354    -1.1517623
H           1.6962869    -4.5719803    -1.1581939
C           2.6277632    -2.7208329    -1.4885439
H           3.5724243    -3.1863235    -1.7677780
C           5.5903764     0.7817119     0.8660649
H           6.3195023     1.3713001     1.4109848
C           5.4154995    -0.5582846     1.0321122
H           6.0228942    -1.1079534     1.7411258
C           4.4174947    -1.2142914     0.2508071
H           4.2706069    -2.2827573     0.3846155
C           3.6214827    -0.5433808    -0.6395996
C           3.8259295     0.8884350    -0.8530015
O           3.2276850     1.5969877    -1.6642816
N           4.8165990     1.4572212    -0.0348924
H           4.9521383     2.4500185    -0.1877809
24
036_C11H11NO_2-0-19-17 (135,) energy =    -555.7361675
C           2.6065074    -1.2509164    -1.4819266
H           2.9436957    -0.9820072    -2.5009333
C           1.2100087    -0.6710337    -1.3386097
H           1.1254496     0.3957566    -1.5096107
C           0.1429745    -1.4057786    -1.0185419
H          -0.8315842    -0.9262708    -0.9349114
C           0.1859541    -2.8917279    -0.7786884
H          -0.1157932    -3.1215793     0.2577203
H          -0.5726766    -3.3945326    -1.4008729
C           1.5393507    -3.4841133    -1.0632272
H           1.6196290    -4.5698563    -1.0263158
C           2.6128743    -2.7556740    -1.3774614
H           3.5516837    -3.2583805    -1.6060066
C           5.6216653     0.7743913     0.9084034
H           6.3451049     1.3683613     1.4561399
C           5.5551711    -0.5841405     0.9555010
H           6.2508451    -1.1493520     1.5639472
C           4.5472380    -1.2397966     0.1874065
H           4.4902583    -2.3233531     0.2369534
C           3.6245382    -0.5607352    -0.5662589
C           3.7429122     0.8937964    -0.6870369
O           3.0836955     1.6294508    -1.4236045
N           4.7373097     1.4624367     0.1281206
H           4.8014479     2.4704575     0.0429960
24
036_C11H11NO_2-0-19-17 (150,) energy =    -555.7319462
C           2.6368676    -1.3023477    -1.4975827
H           3.0449047    -1.1244182    -2.5114158
C           1.2456316    -0.6923670    -1.5018441
H           1.1861923     0.3491788    -1.7890758
C           0.1490402    -1.3734391    -1.1625357
H          -0.8192501    -0.8754187    -1.1936376
C           0.1496099    -2.8222616    -0.7536889
H          -0.1738489    -2.9269747     0.2963733
H          -0.6103066    -3.3750513    -1.3297437
C           1.4924779    -3.4709399    -0.9479962
H           1.5412394    -4.5523947    -0.8267301
C           2.5942728    -2.7982465    -1.2866232
H           3.5173933    -3.3488923    -1.4587145
C           5.6180168     0.7804773     0.9170599
H           6.3200920     1.3812980     1.4848527
C           5.6766645    -0.5747356     0.8111026
H           6.4605009    -1.1346744     1.3066037
C           4.6750855    -1.2352363     0.0403936
H           4.7235717    -2.3179601    -0.0198024
C           3.6359296    -0.5794294    -0.5724453
C           3.6361363     0.8869511    -0.5561436
O           2.8980694     1.6462977    -1.1856358
N           4.6228296     1.4546517     0.2726095
H           4.5947199     2.4678255     0.2866016
24
036_C11H11NO_2-0-19-17 (165,) energy =    -555.7286050
C           2.6972401    -1.3734102    -1.5427319
H           3.1621031    -1.3400248    -2.5459538
C           1.3265105    -0.7401564    -1.6912709
H           1.3019458     0.2552737    -2.1136109
C           0.1904792    -1.3438061    -1.3361889
H          -0.7558071    -0.8279849    -1.4923439
C           0.1191181    -2.7232072    -0.7407623
H          -0.2531991    -2.6771892     0.2973205
H          -0.6333089    -3.3256000    -1.2751897
C           1.4467869    -3.4263780    -0.7812290
H           1.4573117    -4.4819749    -0.5123458
C           2.5847297    -2.8341302    -1.1478235
H           3.4924782    -3.4320506    -1.1904901
C           5.6069525     0.7624925     0.9363814
H           6.2787940     1.3592029     1.5438079
C           5.8126147    -0.5456490     0.6225850
H           6.6918962    -1.0697115     0.9769344
C           4.8334846    -1.2063877    -0.1739263
H           5.0090520    -2.2524299    -0.4051215
C           3.6883144    -0.6029907    -0.6351851
C           3.5035230     0.8274871    -0.3701592
O           2.6178706     1.5727984    -0.7888277
N           4.4927469     1.3887759     0.4651878
H           4.3375939     2.3732771     0.6502314
24
036_C11H11NO_2-0-19-17 (180,) energy =    -555.7288305
C           2.7192707    -1.4363351    -1.5087170
H           3.2043218    -1.5787114    -2.4918066
C           1.3792831    -0.7809683    -1.7707573
H           1.4059668     0.1976980    -2.2352646
C           0.2019626    -1.3503482    -1.5072390
H          -0.7118156    -0.8179975    -1.7660638
C           0.0395362    -2.6960134    -0.8581295
H          -0.5251140    -2.5991518     0.0847369
H          -0.5890138    -3.3482402    -1.4877439
C           1.3591013    -3.3639947    -0.5960434
H           1.3317102    -4.3563617    -0.1473439
C           2.5386318    -2.8137007    -0.8872265
H           3.4464647    -3.3731068    -0.6716457
C           5.6445191     0.7566834     0.8835095
H           6.3147477     1.3500457     1.4960816
C           5.9534315    -0.4687624     0.3765125
H           6.9178639    -0.9226727     0.5690265
C           4.9664855    -1.1347039    -0.4044939
H           5.2220354    -2.1119977    -0.8081815
C           3.7288749    -0.6076617    -0.6836528
C           3.3938279     0.7174791    -0.1570012
O           2.3585471     1.3617454    -0.3154717
N           4.4233212     1.2979753     0.6174982
H           4.1748994     2.2112984     0.9802709
