23
366_C10H12O_0-4-14-9 (-165,) energy =    -463.5157905
C           2.1540510    -2.4882719    -1.2953812
H           2.9400664    -3.2018922    -1.0327376
H           2.2204742    -2.2963075    -2.3707471
H           1.1770181    -2.9292542    -1.0878988
C           2.2290078    -1.1916477    -0.4957605
C           5.8492914     1.0799891     0.2239455
H           6.7480363     1.6605230     0.4151812
C           4.7037628     1.2870411     0.9809019
H           4.7080825     2.0336019     1.7705692
C           3.5306946     0.5589982     0.7521057
C           2.3590491     0.8831220     1.6555669
H           2.6898668     1.5581558     2.4522057
H           1.9250695    -0.0100657     2.1128139
H           1.5443346     1.3619304     1.1063194
C           3.5201106    -0.4432709    -0.2669959
C           4.6924633    -0.6403449    -1.0550206
C           4.8202709    -1.5977625    -2.2263273
H           4.0567519    -1.4284862    -2.9919356
H           4.7591107    -2.6494721    -1.9305101
H           5.7924300    -1.4563600    -2.7066250
C           5.8318921     0.1282682    -0.7875170
H           6.7199633    -0.0238862    -1.3951049
O           1.1744071    -0.7638802    -0.0435152
23
366_C10H12O_0-4-14-9 (-150,) energy =    -463.5179012
C           2.1769182    -2.5576412    -1.1382235
H           3.0080085    -3.1728522    -0.7819211
H           2.2034207    -2.5507914    -2.2328378
H           1.2280779    -3.0046346    -0.8318881
C           2.2055586    -1.1355095    -0.5876034
C           5.8635648     1.0043034     0.2599270
H           6.7768803     1.5486820     0.4853896
C           4.7150777     1.2190584     1.0129293
H           4.7326510     1.9342695     1.8312037
C           3.5232016     0.5400291     0.7368513
C           2.3294575     0.8587070     1.6123459
H           2.6549876     1.4355430     2.4843157
H           1.8151965    -0.0400663     1.9639835
H           1.5805692     1.4411907     1.0687606
C           3.5056105    -0.4229955    -0.3120675
C           4.6727424    -0.6270594    -1.0970486
C           4.7464427    -1.5395050    -2.3070732
H           3.9257066    -1.3654416    -3.0103877
H           4.7296879    -2.6017328    -2.0410091
H           5.6796830    -1.3582363    -2.8480061
C           5.8313204     0.0970513    -0.7929040
H           6.7189888    -0.0525423    -1.4021785
O           1.1355207    -0.5902346    -0.3561822
23
366_C10H12O_0-4-14-9 (-135,) energy =    -463.5190624
C           2.1206236    -2.5937262    -0.9792617
H           1.1979505    -3.0141940    -0.5700827
H           2.9860367    -3.1090019    -0.5534217
H           2.1106932    -2.7728836    -2.0602407
C           2.1182794    -1.0958462    -0.6888265
C           5.7764182     0.9946061     0.2255964
H           6.6943742     1.5240192     0.4672113
C           4.6345916     1.1854505     0.9977275
H           4.6631650     1.8651247     1.8456709
C           3.4368780     0.5269249     0.6985692
C           2.2285913     0.8084185     1.5662855
H           2.5322963     1.3473330     2.4693234
H           1.7105521    -0.1059593     1.8719681
H           1.4909167     1.4138288     1.0316732
C           3.4129806    -0.3826108    -0.3891662
C           4.5684611    -0.5736861    -1.1845398
C           4.5970828    -1.4675150    -2.4088557
H           3.7271944    -1.3133753    -3.0561877
H           4.6268003    -2.5319979    -2.1484453
H           5.4893944    -1.2565744    -3.0057191
C           5.7342448     0.1310532    -0.8645417
H           6.6171879    -0.0003283    -1.4851828
O           1.0532414    -0.4994792    -0.6552758
23
366_C10H12O_0-4-14-9 (-120,) energy =    -463.5191431
C           2.1385672    -2.5572070    -0.7918703
H           2.0626296    -2.9113271     0.2459799
H           3.0364193    -3.0117909    -1.2154525
H           1.2495721    -2.8865859    -1.3353151
C           2.1873273    -1.0376514    -0.7632568
C           5.8464446     0.9347947     0.3687572
H           6.7647977     1.4371046     0.6612509
C           4.6868722     1.1030834     1.1231318
H           4.7026653     1.7380559     2.0055176
C           3.4910013     0.4786539     0.7570337
C           2.2464676     0.7164824     1.5853845
H           2.4927023     1.2740862     2.4940446
H           1.7643830    -0.2206981     1.8875427
H           1.5001287     1.2833451     1.0209032
C           3.4864284    -0.3667131    -0.3770261
C           4.6498276    -0.5285006    -1.1578799
C           4.6775808    -1.3551242    -2.4288172
H           3.7201558    -1.3426582    -2.9585516
H           4.9344888    -2.4045639    -2.2326609
H           5.4363170    -0.9661645    -3.1153412
C           5.8199295     0.1363013    -0.7699036
H           6.7152409     0.0283643    -1.3777759
O           1.1803233    -0.3821711    -0.9705869
23
366_C10H12O_0-4-14-9 (-105,) energy =    -463.5192817
C           2.0849921    -2.4922287    -0.6169236
H           2.1085077    -2.6921046     0.4627272
H           2.9255513    -3.0407971    -1.0548555
H           1.1416465    -2.8543229    -1.0325445
C           2.2123365    -0.9966118    -0.8475062
C           5.8870670     0.8936617     0.3599247
H           6.8113923     1.3750234     0.6682368
C           4.7329586     1.0427560     1.1272637
H           4.7584548     1.6419187     2.0342541
C           3.5309446     0.4412148     0.7419978
C           2.2806139     0.6413894     1.5709072
H           2.4950579     1.2463698     2.4567817
H           1.8584761    -0.3113838     1.9159017
H           1.4988955     1.1440381     0.9920624
C           3.5134483    -0.3408672    -0.4314703
C           4.6699132    -0.4944467    -1.2188144
C           4.6641136    -1.3066981    -2.4975512
H           3.7201478    -1.2091102    -3.0438440
H           4.8238395    -2.3759879    -2.3036276
H           5.4674710    -0.9800363    -3.1652455
C           5.8500044     0.1381070    -0.8085212
H           6.7445748     0.0372641    -1.4187022
O           1.2903542    -0.3401715    -1.2973464
23
366_C10H12O_0-4-14-9 (-90,) energy =    -463.5191279
C           1.9131144    -2.5076825    -0.5154651
H           1.9018828    -2.5488815     0.5806108
H           2.7224994    -3.1715882    -0.8438236
H           0.9588724    -2.8641284    -0.9105115
C           2.1755752    -1.0892106    -0.9888246
C           5.8122273     0.7921606     0.3405070
H           6.7294144     1.2705749     0.6736251
C           4.6499694     0.9065987     1.0999003
H           4.6593675     1.4798510     2.0238905
C           3.4589108     0.2991545     0.6866260
C           2.2000959     0.4495594     1.5135755
H           2.3537971     1.1600172     2.3311742
H           1.8879256    -0.5021410     1.9640462
H           1.3620637     0.8092329     0.9065093
C           3.4591377    -0.4359480    -0.5141117
C           4.6219934    -0.5470813    -1.3000557
C           4.6132322    -1.3061989    -2.6095089
H           3.8139341    -0.9542440    -3.2707977
H           4.4575602    -2.3829183    -2.4594457
H           5.5647602    -1.1860828    -3.1357991
C           5.7937704     0.0735102    -0.8528382
H           6.6966793    -0.0044181    -1.4537557
O           1.3986728    -0.5007764    -1.7184464
23
366_C10H12O_0-4-14-9 (-75,) energy =    -463.5193001
C           1.8462478    -2.4015439    -0.3593834
H           1.7931371    -2.2919948     0.7287324
H           2.6081140    -3.1666503    -0.5607922
H           0.8834613    -2.7373409    -0.7518321
C           2.2573535    -1.1056133    -1.0360333
C           5.8399459     0.8360827     0.3542255
H           6.7462067     1.3276037     0.6981053
C           4.6782183     0.9010801     1.1179092
H           4.6745018     1.4533331     2.0548070
C           3.5026309     0.2687584     0.6942044
C           2.2556266     0.3671170     1.5489016
H           2.2953565     1.2559351     2.1863891
H           2.1461855    -0.4995625     2.2147654
H           1.3449798     0.4348512     0.9446966
C           3.5137912    -0.4274114    -0.5290900
C           4.6764412    -0.4772682    -1.3264198
C           4.6833294    -1.1870626    -2.6630804
H           3.9725141    -0.7281440    -3.3577625
H           4.4000949    -2.2434579    -2.5696137
H           5.6787287    -1.1516702    -3.1155156
C           5.8349881     0.1512973    -0.8599684
H           6.7388237     0.1104236    -1.4630094
O           1.6374023    -0.6574710    -1.9838891
23
366_C10H12O_0-4-14-9 (-60,) energy =    -463.5190669
C           1.7469795    -2.3105717    -0.2779290
H           1.7840678    -2.1283853     0.7975416
H           2.3623783    -3.2005277    -0.4718733
H           0.7237173    -2.5257477    -0.5955795
C           2.3105825    -1.1685991    -1.1100337
C           5.8568426     0.8405915     0.2856645
H           6.7589473     1.3379825     0.6321593
C           4.7024028     0.8689870     1.0609657
H           4.6978343     1.4038126     2.0079259
C           3.5334204     0.2236811     0.6384717
C           2.2999556     0.3250308     1.5149916
H           2.3219123     1.2566045     2.0895922
H           2.2423580    -0.4953435     2.2426249
H           1.3714792     0.3198771     0.9362812
C           3.5370173    -0.4441684    -0.6041827
C           4.6956098    -0.4484867    -1.4168079
C           4.7251809    -1.1212961    -2.7726107
H           4.0835472    -0.5970959    -3.4869556
H           4.3642955    -2.1555438    -2.7305691
H           5.7453424    -1.1381264    -3.1678964
C           5.8481581     0.1861463    -0.9445461
H           6.7467680     0.1725780    -1.5563542
O           1.8292651    -0.9051168    -2.1992006
23
366_C10H12O_0-4-14-9 (-45,) energy =    -463.5190299
C           1.8256690    -2.6883405     0.1088560
H           2.5205898    -2.9106578     0.9234353
H           1.5400323    -3.6128509    -0.4001087
H           0.9157361    -2.2573278     0.5410877
C           2.4163056    -1.7464517    -0.9361395
C           5.6746196     0.8892007     0.0780261
H           6.5062312     1.5428556     0.3279498
C           4.5744014     0.8030301     0.9253702
H           4.5404585     1.4039307     1.8308154
C           3.5003686    -0.0447921     0.6328595
C           2.3262657    -0.0511122     1.5923027
H           2.3956661     0.8019363     2.2738398
H           2.2956548    -0.9562122     2.2100013
H           1.3649808     0.0232999     1.0729729
C           3.5334258    -0.8053431    -0.5611419
C           4.6363019    -0.6965333    -1.4466042
C           4.7268782    -1.4559457    -2.7531918
H           4.0401577    -1.0439010    -3.4982724
H           4.4607918    -2.5117913    -2.6435429
H           5.7454825    -1.3989880    -3.1499237
C           5.6999829     0.1421051    -1.0954684
H           6.5561163     0.2118904    -1.7617283
O           2.0053812    -1.8040436    -2.0847961
23
366_C10H12O_0-4-14-9 (-30,) energy =    -463.5178713
C           1.7708622    -2.6056649     0.1398626
H           2.3856692    -2.8370693     1.0143205
H           1.4182646    -3.5319811    -0.3198536
H           0.8931020    -2.0464726     0.4799728
C           2.5257957    -1.8278977    -0.9334326
C           5.7016612     0.9294563     0.0548015
H           6.5190955     1.6024275     0.3002350
C           4.6173546     0.8022354     0.9159011
H           4.5817167     1.3918416     1.8284560
C           3.5596365    -0.0687568     0.6323331
C           2.4066666    -0.0743854     1.6190242
H           2.5062264     0.7712636     2.3057368
H           2.3746891    -0.9827315     2.2304218
H           1.4349623     0.0222268     1.1247155
C           3.5867357    -0.8189671    -0.5744025
C           4.6842604    -0.6713454    -1.4700096
C           4.8120703    -1.4160311    -2.7821403
H           4.0979155    -1.0459298    -3.5228685
H           4.6101308    -2.4858601    -2.6787317
H           5.8244182    -1.2906387    -3.1800659
C           5.7269135     0.1967314    -1.1259008
H           6.5703440     0.2962076    -1.8041750
O           2.2617524    -2.0660026    -2.1039056
23
366_C10H12O_0-4-14-9 (-15,) energy =    -463.5158382
C           1.6236875    -2.5240744     0.1207765
H           2.1243778    -2.7949806     1.0546436
H           1.1893888    -3.4175389    -0.3322108
H           0.8101662    -1.8336704     0.3639389
C           2.5696601    -1.9229007    -0.9136973
C           5.6554857     0.9704477     0.0203187
H           6.4507431     1.6747656     0.2501660
C           4.5965340     0.7964385     0.9025346
H           4.5612284     1.3790768     1.8192731
C           3.5632125    -0.1105990     0.6402352
C           2.4488922    -0.1390583     1.6713975
H           2.6007402     0.6687699     2.3927445
H           2.4128351    -1.0732432     2.2405037
H           1.4613134     0.0103999     1.2246042
C           3.5880123    -0.8629758    -0.5709617
C           4.6719683    -0.6728820    -1.4831484
C           4.8333489    -1.4093305    -2.7964978
H           4.0508901    -1.1417100    -3.5111267
H           4.7671895    -2.4941445    -2.6764946
H           5.8072631    -1.1645080    -3.2336760
C           5.6826365     0.2403439    -1.1603172
H           6.5064918     0.3735560    -1.8563170
O           2.4668268    -2.3396350    -2.0607811
23
366_C10H12O_0-4-14-9 (0,) energy =    -463.5145727
C           1.4779156    -2.3328805     0.0691828
H           1.8056850    -2.6836635     1.0521643
H           0.9308687    -3.1355862    -0.4282694
H           0.8023559    -1.4870807     0.2261504
C           2.6500187    -1.9804126    -0.8415293
C           5.6205653     1.0862003    -0.0562556
H           6.3718520     1.8507493     0.1236253
C           4.6058068     0.8687972     0.8659859
H           4.5683034     1.4695157     1.7706540
C           3.6223163    -0.1076154     0.6649519
C           2.5933130    -0.2071855     1.7773993
H           2.8275614     0.5268201     2.5531823
H           2.5810394    -1.1889367     2.2599538
H           1.5750203     0.0024718     1.4366972
C           3.6607425    -0.9036201    -0.5207146
C           4.7102179    -0.6770163    -1.4683590
C           4.8910447    -1.4351785    -2.7671224
H           4.0260044    -1.3339249    -3.4276179
H           5.0139441    -2.5089132    -2.6042635
H           5.7768550    -1.0547136    -3.2873224
C           5.6634973     0.3147291    -1.2089448
H           6.4550065     0.4779672    -1.9352381
O           2.7393859    -2.6284626    -1.8774778
23
366_C10H12O_0-4-14-9 (15,) energy =    -463.5158384
C           1.4031346    -2.1360742    -0.0360272
H           1.5268507    -2.5321405     0.9765802
H           0.7939151    -2.8403761    -0.6060107
H           0.8797891    -1.1786561     0.0399387
C           2.7430699    -2.0306041    -0.7569953
C           5.5812872     1.1810074    -0.1287790
H           6.2860552     1.9982124     0.0009046
C           4.6146684     0.9289029     0.8366325
H           4.5753083     1.5465561     1.7299882
C           3.6864677    -0.1090162     0.6933495
C           2.7362675    -0.2946356     1.8632111
H           3.0421152     0.3569647     2.6865386
H           2.7393526    -1.3195245     2.2462896
H           1.7000556    -0.0386241     1.6208248
C           3.7444564    -0.9398859    -0.4640939
C           4.7477688    -0.6866300    -1.4501772
C           4.9194435    -1.4783545    -2.7296107
H           3.9901974    -1.5540255    -3.3007651
H           5.2306116    -2.5072803    -2.5316365
H           5.6774025    -0.9967581    -3.3566321
C           5.6414261     0.3733126    -1.2565146
H           6.3968120     0.5631686    -2.0143023
O           2.9832029    -2.8863546    -1.5995849
23
366_C10H12O_0-4-14-9 (30,) energy =    -463.5178713
C           1.3819758    -2.0213434    -0.1557085
H           1.3318463    -2.4174496     0.8638206
H           0.7791853    -2.6703717    -0.7953360
H           0.9596072    -1.0125035    -0.1490119
C           2.8118892    -2.0680012    -0.6847840
C           5.5488071     1.2335016    -0.1597113
H           6.2294991     2.0740372    -0.0525375
C           4.6202900     0.9532642     0.8366338
H           4.5888286     1.5682882     1.7324079
C           3.7216463    -0.1125231     0.7167016
C           2.7979172    -0.3527634     1.8965216
H           3.1307473     0.2430654     2.7513992
H           2.7917607    -1.4000951     2.2142195
H           1.7609238    -0.0667044     1.6897781
C           3.7792097    -0.9383031    -0.4385246
C           4.7462129    -0.6683626    -1.4487396
C           4.8986568    -1.4849031    -2.7146710
H           3.9425005    -1.6702226    -3.2120718
H           5.3243796    -2.4701929    -2.5057779
H           5.5581181    -0.9607904    -3.4142072
C           5.6056257     0.4247000    -1.2884998
H           6.3326609     0.6372932    -2.0679578
O           3.1468137    -3.0443117    -1.3413332
23
366_C10H12O_0-4-14-9 (45,) energy =    -463.5190299
C           1.1482984    -1.1357068    -1.4355815
H           0.7583966    -1.8196432    -2.1942369
H           1.2116439    -0.1231333    -1.8436730
H           0.4348746    -1.1273224    -0.6039871
C           2.4982737    -1.6759135    -0.9731674
C           5.6971547     1.0188096     0.0743393
H           6.5092929     1.6966616     0.3238295
C           4.4189430     1.2458008     0.5748621
H           4.2374906     2.0941647     1.2301587
C           3.3543913     0.3966686     0.2530284
C           2.0022661     0.6972493     0.8698646
H           2.1138521     1.4249757     1.6791676
H           1.5323183    -0.1954176     1.2959828
H           1.2981414     1.1244356     0.1463809
C           3.5988381    -0.7237811    -0.5776238
C           4.9066320    -0.9805204    -1.0634653
C           5.2478314    -2.1732515    -1.9312545
H           4.5306681    -2.3181620    -2.7450867
H           5.2412131    -3.0998165    -1.3499455
H           6.2423866    -2.0450862    -2.3701523
C           5.9321679    -0.0856463    -0.7385962
H           6.9312050    -0.2680244    -1.1264304
O           2.6860747    -2.8826902    -0.9775711
23
366_C10H12O_0-4-14-9 (60,) energy =    -463.5190669
C           1.4363810    -1.4813164    -1.0979669
H           1.6102878    -1.4689113    -2.1833033
H           1.0459432    -0.4983176    -0.8287509
H           0.7015103    -2.2595695    -0.8776128
C           2.7566337    -1.8194792    -0.4221502
C           5.7202553     1.2822250    -0.0257035
H           6.4721035     2.0621557     0.0619453
C           4.4841656     1.4313935     0.5943471
H           4.2757605     2.3228070     1.1814959
C           3.4972597     0.4439283     0.4831181
C           2.1853366     0.6537841     1.2144274
H           2.3438849     1.2760779     2.1010452
H           1.7365511    -0.2856736     1.5506010
H           1.4440722     1.1718080     0.5915626
C           3.7837823    -0.7230327    -0.2560284
C           5.0509302    -0.9002924    -0.8607059
C           5.4077591    -2.1551842    -1.6286042
H           4.6572392    -2.4047085    -2.3876378
H           5.4746778    -3.0198304    -0.9617624
H           6.3692635    -2.0314245    -2.1360064
C           5.9974207     0.1220475    -0.7460928
H           6.9671835    -0.0003881    -1.2220799
O           3.0066181    -2.9691220    -0.1008962
23
366_C10H12O_0-4-14-9 (75,) energy =    -463.5193001
C           1.5107531    -1.5173304    -1.2319159
H           1.8556189    -1.4290958    -2.2709896
H           1.0131233    -0.5734509    -0.9864063
H           0.8043286    -2.3471877    -1.1542359
C           2.7089190    -1.7718991    -0.3342012
C           5.6734633     1.3340980    -0.0144753
H           6.4271509     2.1129836     0.0658156
C           4.4531864     1.4738994     0.6400683
H           4.2577345     2.3588769     1.2412236
C           3.4674494     0.4838005     0.5431753
C           2.1539115     0.6678687     1.2752537
H           2.2782591     1.3486801     2.1231922
H           1.7625807    -0.2773277     1.6656279
H           1.3811089     1.1023130     0.6267788
C           3.7384109    -0.6659093    -0.2223119
C           4.9816371    -0.8330969    -0.8676117
C           5.2959204    -2.0859512    -1.6563439
H           4.5716448    -2.2568486    -2.4632811
H           5.2718392    -2.9729163    -1.0151258
H           6.2877478    -2.0178660    -2.1128662
C           5.9327817     0.1862208    -0.7617064
H           6.8905394     0.0707632    -1.2633208
O           2.8675009    -2.8403952     0.2286214
23
366_C10H12O_0-4-14-9 (90,) energy =    -463.5191279
C           1.5881236    -1.6356851    -1.3736918
H           2.0727851    -1.6253960    -2.3579131
H           1.0530558    -0.6827175    -1.2800923
H           0.8803979    -2.4662021    -1.3183864
C           2.6312409    -1.7664474    -0.2783265
C           5.6392413     1.3041375    -0.0430448
H           6.4005919     2.0771239     0.0195452
C           4.4422062     1.4456177     0.6553162
H           4.2720420     2.3277537     1.2679699
C           3.4506160     0.4603772     0.5885716
C           2.1636544     0.6205847     1.3690496
H           2.2140633     1.4919626     2.0285962
H           1.9575016    -0.2598216     1.9875786
H           1.2973814     0.7619638     0.7089807
C           3.6856401    -0.6790683    -0.2042549
C           4.8968973    -0.8432156    -0.9029705
C           5.1649004    -2.0851037    -1.7257053
H           4.5036885    -2.1494852    -2.6001943
H           5.0103449    -2.9960772    -1.1372391
H           6.1943165    -2.0924745    -2.0959251
C           5.8636575     0.1644196    -0.8121696
H           6.8034823     0.0461312    -1.3461698
O           2.6292278    -2.6998262     0.5033253
23
366_C10H12O_0-4-14-9 (105,) energy =    -463.5192818
C           1.7741956    -1.6430262    -1.4468523
H           2.3841145    -1.7013763    -2.3545075
H           1.2041705    -0.7065414    -1.5118225
H           1.0817681    -2.4870849    -1.4036583
C           2.6345769    -1.6143530    -0.1958257
C           5.7326815     1.3674127     0.0172199
H           6.5125874     2.1219793     0.0764931
C           4.5532361     1.5237151     0.7435898
H           4.4144049     2.4012407     1.3704539
C           3.5427186     0.5588188     0.6897799
C           2.2831861     0.7302948     1.5111452
H           2.3013058     1.6787594     2.0559846
H           2.1713904    -0.0814965     2.2373280
H           1.3804604     0.7252882     0.8866253
C           3.7309108    -0.5701980    -0.1340957
C           4.9194347    -0.7435067    -0.8677653
C           5.1520984    -1.9631605    -1.7356538
H           4.7155391    -1.8424314    -2.7363210
H           4.7223768    -2.8696625    -1.2967455
H           6.2234688    -2.1389708    -1.8740408
C           5.9151087     0.2367440    -0.7738778
H           6.8428635     0.1037346    -1.3255459
O           2.4209878    -2.3613480     0.7420991
23
366_C10H12O_0-4-14-9 (120,) energy =    -463.5191431
C           1.8682760    -1.7796412    -1.5484170
H           2.5569601    -1.7878256    -2.3956797
H           1.1732729    -0.9438859    -1.7120702
H           1.2915037    -2.7071791    -1.5146194
C           2.5582604    -1.5568793    -0.2117999
C           5.7150012     1.3612289     0.0723742
H           6.5065579     2.1018188     0.1511417
C           4.5459469     1.5057452     0.8169702
H           4.4270532     2.3614045     1.4770876
C           3.5213193     0.5577699     0.7425586
C           2.2830008     0.7358964     1.5948667
H           2.2954655     1.7125518     2.0880250
H           2.2184653    -0.0407353     2.3627683
H           1.3610452     0.6698975     1.0052459
C           3.6734218    -0.5380121    -0.1388465
C           4.8605589    -0.7032702    -0.8823585
C           5.1092540    -1.9021689    -1.7768697
H           4.7563513    -1.7316309    -2.8026271
H           4.6231560    -2.8099847    -1.4067132
H           6.1823236    -2.1087338    -1.8411992
C           5.8728786     0.2566257    -0.7581534
H           6.7969437     0.1252521    -1.3163520
O           2.1661456    -2.1303842     0.7902157
23
366_C10H12O_0-4-14-9 (135,) energy =    -463.5190624
C           1.9275155    -1.9572181    -1.5952990
H           2.1709805    -1.2410499    -2.3850216
H           0.8430147    -2.0739571    -1.5194888
H           2.3430851    -2.9319424    -1.8744078
C           2.4466631    -1.5306393    -0.2254429
C           5.7544614     1.2103143     0.1405602
H           6.5809106     1.9094374     0.2380596
C           4.6004896     1.3808245     0.8992785
H           4.5265928     2.2171905     1.5897984
C           3.5287302     0.4866017     0.8025697
C           2.3188513     0.7209112     1.6820272
H           2.3686941     1.7178843     2.1311554
H           2.2650252    -0.0198025     2.4851376
H           1.3776763     0.6418251     1.1290666
C           3.6169071    -0.5847615    -0.1223357
C           4.7921108    -0.7694351    -0.8898187
C           4.9912343    -1.9348419    -1.8389978
H           4.4269157    -1.8156833    -2.7712801
H           4.6898952    -2.8891120    -1.3939565
H           6.0476598    -2.0205531    -2.1102605
C           5.8497952     0.1336944    -0.7356219
H           6.7601510    -0.0170172    -1.3105856
O           1.8719584    -1.9262813     0.7766838
23
366_C10H12O_0-4-14-9 (150,) energy =    -463.5179012
C           2.0716114    -2.0528410    -1.6048854
H           2.6054493    -3.0000543    -1.7342026
H           2.2760919    -1.4255895    -2.4771808
H           1.0036101    -2.2779564    -1.5534973
C           2.4580300    -1.3897354    -0.2867788
C           5.8119654     1.3060644     0.1164377
H           6.6473562     1.9924168     0.2276701
C           4.6709785     1.4577803     0.8957207
H           4.6154587     2.2677697     1.6183817
C           3.5860556     0.5816680     0.7805731
C           2.3984596     0.8320100     1.6861413
H           2.4942793     1.8161380     2.1566212
H           2.3298673     0.0749851     2.4721488
H           1.4464681     0.7960807     1.1491749
C           3.6409757    -0.4596955    -0.1892218
C           4.8158741    -0.6295649    -0.9707522
C           5.0382000    -1.7638057    -1.9537103
H           4.4375208    -1.6623735    -2.8638196
H           4.8104738    -2.7423449    -1.5187925
H           6.0876016    -1.7831780    -2.2615889
C           5.8817540     0.2609889    -0.7976294
H           6.7834742     0.1216909    -1.3884296
O           1.7650030    -1.6205067     0.6941844
23
366_C10H12O_0-4-14-9 (165,) energy =    -463.5157899
C           2.1581010    -2.2026741    -1.5705037
H           2.7907668    -3.0954119    -1.5465681
H           2.3356060    -1.6907294    -2.5203934
H           1.1155949    -2.5229644    -1.5181301
C           2.4063744    -1.3162535    -0.3542926
C           5.8448007     1.2686108     0.1746831
H           6.6992401     1.9241355     0.3214495
C           4.7008276     1.4209690     0.9467020
H           4.6611699     2.2020626     1.7011972
C           3.5883663     0.5875628     0.7839246
C           2.4068638     0.8698787     1.6885293
H           2.5854895     1.7985934     2.2410633
H           2.2429998     0.0613964     2.4055395
H           1.4705261     0.9689120     1.1328474
C           3.6194232    -0.4274759    -0.2220240
C           4.8034740    -0.5941058    -0.9995894
C           5.0326986    -1.6750426    -2.0407370
H           4.3926884    -1.5664236    -2.9216126
H           4.8725705    -2.6816873    -1.6422904
H           6.0680111    -1.6294083    -2.3897835
C           5.8894841     0.2623969    -0.7817604
H           6.7900383     0.1266001    -1.3746995
O           1.5686401    -1.3615794     0.5378322
23
366_C10H12O_0-4-14-9 (180,) energy =    -463.5145717
C           2.1497935    -2.3697243    -1.4611758
H           2.8698878    -3.1791614    -1.3110482
H           2.2718418    -2.0016101    -2.4841772
H           1.1400184    -2.7675441    -1.3468582
C           2.2961559    -1.2597809    -0.4246160
C           5.8442956     1.1643920     0.1907639
H           6.7237626     1.7809476     0.3572786
C           4.7015947     1.3457572     0.9569282
H           4.6884686     2.1098619     1.7293401
C           3.5536574     0.5680959     0.7642665
C           2.3873330     0.8859983     1.6767802
H           2.6664126     1.7056633     2.3478072
H           2.0900029     0.0245929     2.2806738
H           1.4940677     1.1774320     1.1187388
C           3.5556438    -0.4434539    -0.2494120
C           4.7353161    -0.6269128    -1.0340408
C           4.9222906    -1.6449345    -2.1453925
H           4.2255142    -1.5012403    -2.9766586
H           4.8120490    -2.6773389    -1.8010169
H           5.9317254    -1.5515513    -2.5549818
C           5.8506226     0.1849054    -0.7931474
H           6.7432048     0.0383854    -1.3952337
O           1.3166949    -1.0514809     0.2814393
