19
283_C6H9N3O_11-0-1-2 (-165,) energy =    -473.5413611
C           2.5384898    -0.5101176    -1.3002339
N           1.2200271    -0.4406585    -0.9512454
C           0.2292190    -1.2914302    -1.5834446
H          -0.7205198    -0.7563077    -1.6883233
H           0.0514371    -2.2126332    -1.0107361
H           0.5992684    -1.5642364    -2.5727949
H           1.0367729    -0.0642396    -0.0219017
C           3.3289549     0.8214921     0.8429958
N           2.0595137     1.0961914     1.4484278
H           2.1309180     1.0607424     2.4631710
H           1.7372332     2.0340834     1.2100596
C           3.4713375     0.1404454    -0.3627752
N           4.8149654     0.0725029    -0.6355281
H           5.1547423    -0.3973633    -1.4638506
C           5.5301870     0.6638770     0.3622017
H           6.6097112     0.7029263     0.3352319
C           4.6344373     1.1491862     1.3010012
H           4.8880037     1.6813669     2.2088736
O           2.9641610    -1.0828128    -2.3093176
19
283_C6H9N3O_11-0-1-2 (-150,) energy =    -473.5391061
C           2.5207467    -0.3781257    -1.3889313
N           1.1892540    -0.3019636    -1.0591031
C           0.2742762    -1.3312874    -1.5334236
H          -0.7508566    -0.9487422    -1.5257154
H           0.3183906    -2.2394588    -0.9151652
H           0.5486445    -1.5950183    -2.5557564
H           1.0239369     0.0407384    -0.1123660
C           3.3134797     0.8325244     0.8235310
N           2.0478277     1.1419930     1.4123449
H           2.1164638     1.1607915     2.4272459
H           1.7202496     2.0621871     1.1195124
C           3.4549971     0.1991275    -0.4093479
N           4.8024581     0.0846241    -0.6539321
H           5.1420974    -0.3669889    -1.4923336
C           5.5164531     0.5898423     0.3894100
H           6.5969395     0.5752946     0.3933071
C           4.6196234     1.0740746     1.3284455
H           4.8734727     1.5508703     2.2664749
O           2.9487362    -0.9422376    -2.4005321
19
283_C6H9N3O_11-0-1-2 (-135,) energy =    -473.5347608
C           2.5077256    -0.2603268    -1.4758266
N           1.1617673    -0.1926962    -1.1658746
C           0.3325559    -1.3618343    -1.4535418
H          -0.7233519    -1.0752507    -1.4535395
H           0.4828857    -2.1637530    -0.7163878
H           0.5941856    -1.7415686    -2.4423053
H           1.0146547     0.1815554    -0.2267576
C           3.2891438     0.8262324     0.8051391
N           2.0237293     1.1621720     1.3783635
H           2.0644041     1.1241294     2.3942718
H           1.7447204     2.1101853     1.1274214
C           3.4367905     0.2401811    -0.4513222
N           4.7856746     0.0914662    -0.6727456
H           5.1290541    -0.3380797    -1.5212167
C           5.4916541     0.5226012     0.4078842
H           6.5703855     0.4651677     0.4365230
C           4.5907441     0.9973854     1.3480718
H           4.8394950     1.4227295     2.3118090
O           2.9449022    -0.8037288    -2.4932748
19
283_C6H9N3O_11-0-1-2 (-120,) energy =    -473.5288012
C           2.5112482    -0.1429371    -1.5726599
N           1.1481243    -0.0980624    -1.2896481
C           0.4238558    -1.3716422    -1.3753691
H          -0.6512138    -1.1816177    -1.3083340
H           0.7129854    -2.0672931    -0.5739320
H           0.6358649    -1.8380763    -2.3391590
H           1.0000156     0.3282782    -0.3724315
C           3.2644756     0.8207924     0.7731008
N           1.9976126     1.1839267     1.3248032
H           2.0044535     1.0945932     2.3383283
H           1.7679677     2.1546610     1.1143229
C           3.4264038     0.2812357    -0.5035085
N           4.7765502     0.0999825    -0.6964782
H           5.1292799    -0.3048619    -1.5532309
C           5.4653492     0.4582960     0.4204684
H           6.5401707     0.3603377     0.4758400
C           4.5550830     0.9228344     1.3570917
H           4.7910881     1.2979161     2.3445899
O           2.9635601    -0.6507533    -2.5998343
19
283_C6H9N3O_11-0-1-2 (-105,) energy =    -473.5258141
C           2.5087521     0.0140282    -1.4999780
N           1.1175463     0.1693034    -1.0963570
C           0.4483256    -1.1451121    -0.9580309
H           0.5599282    -1.7723592    -1.8531745
H          -0.6159192    -0.9822084    -0.7637006
H           0.8734943    -1.6760461    -0.1006606
H           0.6785161     0.6304487    -1.8962544
C           3.3388351     0.6278886     0.8931503
N           2.1501976     0.7912880     1.5802766
H           2.1795042     1.4723209     2.3288713
H           1.3567945     0.9001222     0.9505668
C           3.4619780     0.2363449    -0.4556561
N           4.8240262     0.1187560    -0.7207374
H           5.1696919    -0.1128991    -1.6401891
C           5.5347270     0.4392346     0.3850606
H           6.6158513     0.4212499     0.3846484
C           4.6555700     0.7567804     1.4103986
H           4.9274762     1.0348431     2.4196534
O           2.8207737    -0.2161407    -2.6678127
19
283_C6H9N3O_11-0-1-2 (-90,) energy =    -473.5285703
C           2.5103915     0.1022376    -1.5831891
N           1.1216543     0.2007926    -1.2086210
C           0.5275913    -1.1037599    -0.8365975
H           0.6612124    -1.8669263    -1.6161199
H          -0.5424239    -0.9645356    -0.6560125
H           0.9846399    -1.4602169     0.0909359
H           0.6526257     0.5133776    -2.0603897
C           3.2995187     0.5871781     0.8560273
N           2.0951061     0.7486291     1.5260035
H           2.1390793     1.3846070     2.3133967
H           1.3295383     0.9592853     0.8887334
C           3.4453229     0.2553246    -0.5031901
N           4.8090565     0.1316903    -0.7468372
H           5.1692562    -0.0460717    -1.6728300
C           5.5028392     0.3871409     0.3872284
H           6.5832681     0.3532509     0.4071928
C           4.6059213     0.6682149     1.4076806
H           4.8594114     0.8955749     2.4343739
O           2.8548680    -0.0088722    -2.7600208
19
283_C6H9N3O_11-0-1-2 (-75,) energy =    -473.5310869
C           2.5135550     0.1755201    -1.6458339
N           1.1276376     0.1795272    -1.3203454
C           0.5920593    -1.0752249    -0.7514610
H           0.7638126    -1.9420612    -1.4050512
H          -0.4852087    -0.9573236    -0.6011885
H           1.0497296    -1.2666229     0.2219457
H           0.6442230     0.3759060    -2.1965255
C           3.2677668     0.5551116     0.8332750
N           2.0554906     0.7283192     1.4976460
H           2.1222919     1.3292573     2.3112923
H           1.3134767     1.0273374     0.8693891
C           3.4267038     0.2630339    -0.5307061
N           4.7910413     0.1410640    -0.7622446
H           5.1594438    -0.0018468    -1.6912044
C           5.4745888     0.3437540     0.3891358
H           6.5540145     0.2949061     0.4206229
C           4.5666114     0.5985825     1.4062941
H           4.8075087     0.7906531     2.4433080
O           2.8995292     0.1904314    -2.8162252
19
283_C6H9N3O_11-0-1-2 (-60,) energy =    -473.5323701
C           2.5027634     0.2322636    -1.6863830
N           1.1251518     0.1193798    -1.4255381
C           0.6182958    -1.0585303    -0.7002521
H           0.8241270    -1.9987663    -1.2312664
H          -0.4649023    -0.9543648    -0.5857607
H           1.0581961    -1.1098740     0.2970826
H           0.6486819     0.2327302    -2.3178930
C           3.2457192     0.5274794     0.8229601
N           2.0374737     0.7162571     1.5004824
H           2.1384562     1.2765527     2.3396061
H           1.3113543     1.0968479     0.8998134
C           3.3993579     0.2596936    -0.5445354
N           4.7624005     0.1388749    -0.7796436
H           5.1264051     0.0405673    -1.7163130
C           5.4507755     0.3065693     0.3748498
H           6.5294613     0.2440441     0.4038818
C           4.5447888     0.5433478     1.3973101
H           4.7860185     0.7088478     2.4389494
O           2.9238501     0.3712185    -2.8379285
19
283_C6H9N3O_11-0-1-2 (-45,) energy =    -473.5322024
C           2.4997282     0.2659691    -1.7125372
N           1.1413168     0.0256035    -1.5323112
C           0.6221401    -1.0456942    -0.6755548
H           0.8729965    -2.0452872    -1.0587979
H          -0.4677443    -0.9562731    -0.6341257
H           1.0064439    -0.9512828     0.3407986
H           0.6869880     0.0742097    -2.4395543
C           3.2328087     0.5113312     0.8261908
N           2.0305619     0.7051581     1.5235614
H           2.1691238     1.1984174     2.3991774
H           1.3297036     1.1855778     0.9666870
C           3.3784178     0.2679183    -0.5457206
N           4.7407268     0.1598387    -0.7880627
H           5.0977355     0.0913315    -1.7303212
C           5.4361233     0.2964154     0.3662090
H           6.5146606     0.2303450     0.3880181
C           4.5338847     0.5106869     1.3961463
H           4.7778501     0.6562235     2.4403049
O           2.9536649     0.4993914    -2.8381433
19
283_C6H9N3O_11-0-1-2 (-30,) energy =    -473.5310164
C           2.5491641     0.2734580    -1.7445142
N           1.2227735    -0.0907841    -1.6470810
C           0.6423769    -1.0294754    -0.6907250
H           0.8598627    -2.0749505    -0.9538630
H          -0.4442769    -0.8967219    -0.6857769
H           1.0111039    -0.8398448     0.3177657
H           0.7951408    -0.0838906    -2.5664451
C           3.2575504     0.5040046     0.8243863
N           2.0544910     0.6834676     1.5333675
H           2.2155276     1.0878574     2.4500979
H           1.3869569     1.2605191     1.0298221
C           3.4045005     0.2807713    -0.5503022
N           4.7683651     0.1998002    -0.7921396
H           5.1228613     0.1607169    -1.7372805
C           5.4641774     0.3235495     0.3633779
H           6.5433485     0.2695369     0.3832155
C           4.5586028     0.5096820     1.3949178
H           4.7989493     0.6440806     2.4415834
O           3.0327188     0.5742579    -2.8433598
19
283_C6H9N3O_11-0-1-2 (-15,) energy =    -473.5292855
C           2.5844023     0.2151499    -1.7799353
N           1.2891321    -0.2342290    -1.7401001
C           0.5859988    -0.9757237    -0.7065761
H           0.4156661    -2.0150766    -1.0187248
H          -0.3899002    -0.5197904    -0.4963657
H           1.1614933    -0.9828773     0.2177221
H           0.8749492    -0.2196266    -2.6642650
C           3.2603619     0.4858816     0.8126574
N           2.0563740     0.6075860     1.5371905
H           2.2199672     0.9906145     2.4627857
H           1.3704081     1.1872911     1.0628004
C           3.4150699     0.2713367    -0.5633177
N           4.7818728     0.2485465    -0.8034309
H           5.1328575     0.2263622    -1.7507121
C           5.4735385     0.3999368     0.3503485
H           6.5540442     0.3928923     0.3688367
C           4.5608720     0.5462119     1.3815268
H           4.7944432     0.6898918     2.4285890
O           3.0902887     0.5294240    -2.8664004
19
283_C6H9N3O_11-0-1-2 (0,) energy =    -473.5279084
C           2.8870075    -1.4413967    -0.7012176
N           1.5657829    -1.4875343    -1.0598392
C           0.5426959    -0.4597832    -1.0487683
H          -0.1439274    -0.5551050    -0.1948611
H          -0.0513060    -0.5299635    -1.9669289
H           1.0004699     0.5279198    -1.0090376
H           1.2978751    -2.4192776    -1.3511365
C           3.1873174     0.9419736     0.5412734
N           1.9210855     1.3451841     1.0154692
H           1.3853358     0.5782957     1.4091371
H           2.0103766     2.0694702     1.7209215
C           3.5146015    -0.2025989    -0.2004461
N           4.8884163    -0.1571624    -0.3981061
H           5.3662297    -0.9433750    -0.8162968
C           5.4161007     0.9632352     0.1463528
H           6.4723391     1.1822805     0.0808784
C           4.3875599     1.6768860     0.7376980
H           4.4799230     2.6179710     1.2644733
O           3.6007712    -2.4371560    -0.8892061
19
283_C6H9N3O_11-0-1-2 (15,) energy =    -473.5293184
C           2.8618282    -1.4621051    -0.6509988
N           1.5146113    -1.5068205    -0.9085335
C           0.5681124    -0.4199252    -1.0930255
H          -0.2237647    -0.4284065    -0.3320914
H           0.0922356    -0.5012921    -2.0780632
H           1.0815049     0.5387869    -1.0367827
H           1.2260005    -2.4319577    -1.2014964
C           3.1830314     0.9133739     0.5644586
N           1.9255442     1.2758955     1.0848800
H           1.3958366     0.4798106     1.4250040
H           2.0157703     1.9532760     1.8349635
C           3.5044878    -0.2169469    -0.1991762
N           4.8672381    -0.1436372    -0.4541522
H           5.3490641    -0.9192602    -0.8866450
C           5.3929572     0.9823392     0.0830935
H           6.4412858     1.2233547    -0.0210575
C           4.3749817     1.6715525     0.7205194
H           4.4700733     2.6119501     1.2478131
O           3.5594926    -2.4660694    -0.8490998
19
283_C6H9N3O_11-0-1-2 (30,) energy =    -473.5310165
C           2.7900973    -1.4734342    -0.5876914
N           1.4187698    -1.5074518    -0.7283508
C           0.5540078    -0.4019613    -1.1316831
H          -0.4809230    -0.6589862    -0.8840373
H           0.6105101    -0.2062600    -2.2124533
H           0.8125798     0.5129454    -0.5977838
H           1.1272733    -2.4266147    -1.0419037
C           3.1758411     0.9061705     0.5712671
N           1.9411690     1.2462871     1.1562041
H           1.4638693     0.4430995     1.5552501
H           2.0481827     1.9567349     1.8729235
C           3.4636442    -0.2270617    -0.1995947
N           4.8099703    -0.1493705    -0.5259611
H           5.2754550    -0.9217854    -0.9811455
C           5.3545326     0.9870903    -0.0294262
H           6.3932935     1.2359139    -0.1936722
C           4.3672505     1.6752821     0.6564853
H           4.4847744     2.6202635     1.1708215
O           3.4638408    -2.4874901    -0.8103091
19
283_C6H9N3O_11-0-1-2 (45,) energy =    -473.5322024
C           2.7397134    -1.4500113    -0.5763472
N           1.3485520    -1.4622964    -0.5685670
C           0.5328006    -0.3854781    -1.1397642
H          -0.5182572    -0.5947808    -0.9183358
H           0.6479036    -0.3082797    -2.2305357
H           0.7867389     0.5750338    -0.6897538
H           1.0375605    -2.3913587    -0.8368858
C           3.1547733     0.9012650     0.5820965
N           1.9244226     1.2250383     1.1742966
H           1.4041170     0.4030316     1.4670455
H           2.0302777     1.8602608     1.9581942
C           3.4381268    -0.2217382    -0.2060472
N           4.7783561    -0.1341534    -0.5559186
H           5.2411868    -0.8922159    -1.0366779
C           5.3243305     0.9963038    -0.0474429
H           6.3600307     1.2518541    -0.2209428
C           4.3449160     1.6724382     0.6627055
H           4.4676535     2.6114977     1.1862233
O           3.3764836    -2.4685704    -0.8672012
19
283_C6H9N3O_11-0-1-2 (60,) energy =    -473.5323701
C           2.7330140    -1.4130910    -0.5967853
N           1.3353367    -1.4039168    -0.4386392
C           0.5301031    -0.4037664    -1.1609402
H          -0.5216654    -0.5510754    -0.8975779
H           0.6321254    -0.4915750    -2.2519333
H           0.8143815     0.6051215    -0.8573706
H           1.0124624    -2.3481304    -0.6395901
C           3.1707157     0.8947933     0.5940287
N           1.9362956     1.2013000     1.1743733
H           1.3792046     0.3721460     1.3616061
H           2.0226576     1.7708433     2.0088912
C           3.4568700    -0.2134932    -0.2153958
N           4.7945271    -0.1144269    -0.5740298
H           5.2580290    -0.8548950    -1.0803764
C           5.3392462     1.0032500    -0.0365169
H           6.3747240     1.2641161    -0.2039990
C           4.3613125     1.6633388     0.6916517
H           4.4853516     2.5920673     1.2326436
O           3.3241600    -2.4261335    -0.9801526
19
283_C6H9N3O_11-0-1-2 (75,) energy =    -473.5310869
C           2.7277720    -1.3529294    -0.6333497
N           1.3344371    -1.3307300    -0.3420581
C           0.5084372    -0.4490371    -1.1936554
H          -0.5399015    -0.5679461    -0.9041118
H           0.6071273    -0.6820936    -2.2632484
H           0.7878772     0.5942332    -1.0289863
H           1.0176669    -2.2928250    -0.4602768
C           3.1957993     0.8980759     0.6207756
N           1.9564121     1.1977341     1.1821378
H           1.3727918     0.3711107     1.2859842
H           2.0202699     1.7223036     2.0472147
C           3.4822495    -0.1968651    -0.2099256
N           4.8204806    -0.0938824    -0.5683043
H           5.2791379    -0.8097355    -1.1126369
C           5.3672650     1.0068574     0.0003747
H           6.4056237     1.2649278    -0.1537286
C           4.3913506     1.6550189     0.7429707
H           4.5204989     2.5695245     1.3062827
O           3.2648038    -2.3433249    -1.1330768
19
283_C6H9N3O_11-0-1-2 (90,) energy =    -473.5285703
C           2.7029369    -1.2692809    -0.6744695
N           1.3173441    -1.2386670    -0.2772279
C           0.4519868    -0.5280663    -1.2464406
H          -0.5895251    -0.6261000    -0.9261763
H           0.5493527    -0.9215965    -2.2680015
H           0.7071247     0.5354958    -1.2501372
H           1.0323369    -2.2194618    -0.2816559
C           3.2294610     0.9128617     0.6554520
N           1.9948458     1.2235509     1.2074857
H           1.3734925     0.4173291     1.2300686
H           2.0463673     1.7067141     2.0964674
C           3.4952670    -0.1653995    -0.2080048
N           4.8342466    -0.0728807    -0.5726864
H           5.2781973    -0.7745661    -1.1465776
C           5.4029032     0.9943658     0.0358434
H           6.4465083     1.2365768    -0.1094007
C           4.4420719     1.6378223     0.8023641
H           4.5912777     2.5321925     1.3921851
O           3.1775849    -2.2263164    -1.2866253
19
283_C6H9N3O_11-0-1-2 (105,) energy =    -473.5258141
C           2.6740999    -1.1610979    -0.7210801
N           1.2924479    -1.1259412    -0.2603463
C           0.3837117    -0.6380609    -1.3237606
H          -0.6497489    -0.7314021    -0.9771117
H           0.4998960    -1.1916788    -2.2656652
H           0.5856794     0.4212069    -1.5105857
H           1.0565581    -2.1096510    -0.1123286
C           3.2701126     0.9389004     0.7028927
N           2.0488968     1.2674832     1.2617903
H           1.3809586     0.5008947     1.1980090
H           2.0995446     1.6957110     2.1778221
C           3.5016209    -0.1119520    -0.2080748
N           4.8429539    -0.0414518    -0.5756693
H           5.2620979    -0.7198210    -1.1942753
C           5.4436967     0.9790805     0.0787105
H           6.4936176     1.1969951    -0.0603296
C           4.5061132     1.6167452     0.8783295
H           4.6848036     2.4798835     1.5051538
O           3.0943454    -2.0716314    -1.4341686
19
283_C6H9N3O_11-0-1-2 (120,) energy =    -473.5288012
C           2.6574672    -1.1726694    -0.8935579
N           1.2999193    -1.2003833    -0.5829148
C           0.3736171    -0.9439302    -1.6920474
H           0.4187439     0.0997113    -2.0364402
H          -0.6475863    -1.1662784    -1.3694089
H           0.6261948    -1.6006755    -2.5264870
H           1.1093533    -0.5574101     0.1885989
C           3.2488809     0.7410805     0.8345661
N           2.0068104     0.8569656     1.5309969
H           1.9888981     0.2581039     2.3558620
H           1.8599773     1.8104410     1.8543845
C           3.4811680    -0.1825379    -0.1852831
N           4.7890170    -0.0246918    -0.5823138
H           5.1747843    -0.5806117    -1.3336339
C           5.3737895     0.9889278     0.1112195
H           6.3950741     1.2867104    -0.0790608
C           4.4451947     1.4855232     1.0127429
H           4.6096655     2.2866811     1.7217056
O           3.1443435    -1.8249982    -1.8182001
19
283_C6H9N3O_11-0-1-2 (135,) energy =    -473.5347610
C           2.6196491    -1.0417789    -0.9605867
N           1.2792407    -1.0501771    -0.6211524
C           0.2973160    -1.0367357    -1.7042552
H           0.1973765    -0.0392377    -2.1560627
H          -0.6786530    -1.3510107    -1.3224495
H           0.6166842    -1.7397304    -2.4750491
H           1.0768640    -0.3677202     0.1115412
C           3.2703236     0.7730186     0.8498638
N           2.0215114     0.9178937     1.5296269
H           1.9569116     0.2809046     2.3231119
H           1.9161647     1.8608303     1.8969349
C           3.4769938    -0.1179076    -0.2024757
N           4.7933794     0.0016767    -0.5811311
H           5.1642460    -0.5396269    -1.3503952
C           5.4130738     0.9588825     0.1617312
H           6.4491636     1.2178146    -0.0033295
C           4.4952746     1.4571016     1.0730366
H           4.6845347     2.2206429     1.8165355
O           3.0839701    -1.6748352    -1.9120436
19
283_C6H9N3O_11-0-1-2 (150,) energy =    -473.5391062
C           2.5992212    -0.9164586    -1.0349239
N           1.2718437    -0.9073001    -0.6807549
C           0.2570804    -1.1319372    -1.7012800
H           0.0503645    -0.2232733    -2.2848563
H          -0.6723609    -1.4692006    -1.2325663
H           0.6145998    -1.9061677    -2.3815324
H           1.0451284    -0.2097974     0.0285882
C           3.2920523     0.7918487     0.8597387
N           2.0362446     0.9616586     1.5219141
H           1.9247295     0.2876842     2.2789684
H           1.9691152     1.8879742     1.9372765
C           3.4817110    -0.0610118    -0.2255864
N           4.8060841     0.0247471    -0.5823777
H           5.1683927    -0.4993464    -1.3674285
C           5.4519369     0.9215419     0.2127142
H           6.5009356     1.1425483     0.0769756
C           4.5396477     1.4153945     1.1316604
H           4.7466849     2.1370461     1.9114217
O           3.0500398    -1.5384521    -2.0016779
19
283_C6H9N3O_11-0-1-2 (165,) energy =    -473.5413626
C           2.5816679    -0.7822501    -1.1223549
N           1.2633249    -0.7520165    -0.7682635
C           0.2296603    -1.2002152    -1.6826018
H          -0.1724326    -0.3752359    -2.2876194
H          -0.5942156    -1.6602845    -1.1269886
H           0.6677674    -1.9401127    -2.3540323
H           1.0244630    -0.0879476    -0.0328757
C           3.3034104     0.8154303     0.8568638
N           2.0350357     1.0102703     1.4949000
H           1.9243521     0.3770087     2.2868295
H           1.9612365     1.9557706     1.8645175
C           3.4817980     0.0058401    -0.2615563
N           4.8141395     0.0513481    -0.5884872
H           5.1725954    -0.4592050    -1.3842164
C           5.4825905     0.8752351     0.2665269
H           6.5441680     1.0500920     0.1661544
C           4.5715868     1.3662103     1.1876932
H           4.7921245     2.0394088     2.0061996
O           3.0284181    -1.3980606    -2.0963466
19
283_C6H9N3O_11-0-1-2 (180,) energy =    -473.5419003
C           2.5542513    -0.6435310    -1.2218913
N           1.2429379    -0.5998149    -0.8652872
C           0.2042748    -1.2485146    -1.6375540
H          -0.5049431    -0.5189594    -2.0496649
H          -0.3539961    -1.9674018    -1.0250061
H           0.6837884    -1.7791999    -2.4616222
H           1.0236458    -0.0801424    -0.0164872
C           3.3113609     0.8149485     0.8531553
N           2.0331361     1.0433472     1.4700861
H           2.0341703     0.7045643     2.4315004
H           1.8323200     2.0417076     1.5185643
C           3.4711598     0.0754975    -0.3142255
N           4.8092238     0.0662353    -0.6115854
H           5.1580956    -0.4190771    -1.4272778
C           5.5068734     0.7710886     0.3250438
H           6.5804146     0.8781779     0.2644530
C           4.6033097     1.2543042     1.2561954
H           4.8427572     1.8537713     2.1251599
O           2.9953261    -1.2282649    -2.2181760
