29
112_C10H16N2O_22-0-11-9 (-165,) energy =    -575.4151048
C           1.8502682    -0.1911945    -0.4650453
H           1.3854528    -0.6216781     0.4332701
H           1.5009918     0.8465684    -0.5132406
C           6.1316862    -0.0941758     0.0889546
H           7.1959010     0.1416233     0.2066613
H           6.0427051    -1.1785279     0.2375964
C           5.3033161     0.6292290     1.1586413
H           5.7140361     0.4519763     2.1615758
H           5.3549348     1.7119300     0.9798113
C           3.8098139     0.2257718     1.1132865
H           3.6327821    -0.6134824     1.8065333
C           3.3811307    -0.2241391    -0.3003906
H           3.6793897    -1.2742877    -0.4097288
C           4.1295568     0.5888332    -1.3684478
H           3.9470045     1.6561988    -1.1849900
H           3.7289160     0.3663360    -2.3633548
C           5.6482080     0.2884687    -1.3303885
H           5.8838927    -0.5273026    -2.0243456
H           6.2015257     1.1669280    -1.6859628
C           1.1007423    -2.4321126    -3.2101660
H           1.2816355    -3.3433868    -3.7645706
N           1.8556923    -2.1058257    -2.1042779
C           1.3849200    -0.9494385    -1.6742508
N           0.3535716    -0.5217568    -2.4692787
H          -0.1684162     0.3345395    -2.3511629
C           0.1597696    -1.4666993    -3.4588527
H          -0.5996807    -1.3578502    -4.2183999
O           2.9788318     1.3305760     1.4987017
H           3.2999100     1.6478240     2.3569454
29
112_C10H16N2O_22-0-11-9 (-150,) energy =    -575.4140395
C           1.8889362     0.0917611    -0.5674182
H           1.3658070    -0.1655351     0.3637143
H           1.6168226     1.1340992    -0.7759515
C           6.1435037    -0.0966229     0.1477050
H           7.2129754     0.0668121     0.3255223
H           5.9928646    -1.1838185     0.1787993
C           5.3116349     0.5590678     1.2579821
H           5.6753950     0.2625733     2.2508450
H           5.4223538     1.6499980     1.1910328
C           3.8030020     0.2421223     1.1232045
H           3.5576912    -0.6557733     1.7140685
C           3.4091386    -0.0314014    -0.3432956
H           3.6607938    -1.0801712    -0.5423303
C           4.2384152     0.8362607    -1.3017314
H           4.1003578     1.8907865    -1.0276387
H           3.8643296     0.7273486    -2.3265091
C           5.7387457     0.4558094    -1.2402198
H           5.9659755    -0.2938460    -2.0076487
H           6.3471501     1.3373980    -1.4788599
C           1.0730310    -2.4584754    -3.0100097
H           1.2533408    -3.4209392    -3.4699536
N           1.8760293    -1.9905237    -1.9918125
C           1.3946105    -0.8051319    -1.6667668
N           0.3096702    -0.4949164    -2.4451189
H          -0.2340747     0.3542986    -2.3917720
C           0.0914141    -1.5506413    -3.3102958
H          -0.7094564    -1.5457605    -4.0343094
O           3.0139821     1.3432885     1.5985436
H           3.2998506     1.5347202     2.5052029
29
112_C10H16N2O_22-0-11-9 (-135,) energy =    -575.4122105
C           1.9086224     0.2197952    -0.7396361
H           1.3569312     0.1513866     0.2068085
H           1.7029045     1.2296397    -1.1188437
C           6.1325632    -0.1309303     0.1154603
H           7.1971254    -0.0108296     0.3489335
H           5.9612338    -1.2114376     0.0230221
C           5.2717063     0.4214137     1.2589852
H           5.5884943     0.0071448     2.2254169
H           5.4121206     1.5094372     1.3177806
C           3.7614709     0.1655599     1.0363208
H           3.4672522    -0.7765923     1.5265671
C           3.4200596     0.0467373    -0.4640686
H           3.6667957    -0.9821828    -0.7503403
C           4.3018031     0.9875496    -1.2999980
H           4.1657023     2.0140476    -0.9342192
H           3.9679684     0.9818748    -2.3446678
C           5.7934853     0.5772093    -1.2178764
H           6.0451836    -0.0871912    -2.0533608
H           6.4227347     1.4689986    -1.3321894
C           0.9972868    -2.6021678    -2.8275118
H           1.1714957    -3.6056715    -3.1920911
N           1.8558123    -2.0098250    -1.9254195
C           1.3666811    -0.8059808    -1.6955925
N           0.2219276    -0.6041668    -2.4225683
H          -0.3395603     0.2351143    -2.4233209
C          -0.0264920    -1.7519178    -3.1524237
H          -0.8750574    -1.8413104    -3.8139699
O           2.9864790     1.2407770     1.5902127
H           3.2354342     1.3262639     2.5235454
29
112_C10H16N2O_22-0-11-9 (-120,) energy =    -575.4127939
C           3.2936818    -0.4720569    -1.9186893
H           3.6018199     0.5627994    -2.1056768
H           3.8347490    -1.1032527    -2.6285811
C           6.3994615    -0.4149767    -0.8927677
H           6.1556229    -0.4948853    -1.9595700
H           7.4750157    -0.2101617    -0.8389844
C           5.6044848     0.7545086    -0.2637923
H           6.1957794     1.2281859     0.5319283
H           5.4159760     1.5297959    -1.0157023
C           4.2521280     0.2976558     0.3254286
H           4.4113291    -0.0356304     1.3634413
C           3.6318945    -0.8734450    -0.4436986
H           2.6898963    -1.1162315     0.0585784
C           4.5687587    -2.1105476    -0.3299113
H           4.4094223    -2.7498138    -1.2056537
H           4.2744097    -2.7107816     0.5395451
C           6.0696229    -1.7454506    -0.2016641
H           6.3442799    -1.6688660     0.8596137
H           6.6860510    -2.5517976    -0.6158869
C          -0.0794427    -1.1732081    -3.0235539
H          -0.7886734    -1.7083344    -3.6409598
N           1.2755740    -1.4211903    -3.1112275
C           1.8381390    -0.6087364    -2.2369234
N           0.8988371     0.1519732    -1.5909594
H           1.1113023     0.8323421    -0.8719853
C          -0.3389000    -0.2036809    -2.0880830
H          -1.2534889     0.2524130    -1.7396646
O           3.2786685     1.3561061     0.3278148
H           3.6776842     2.1319836     0.7514819
29
112_C10H16N2O_22-0-11-9 (-105,) energy =    -575.4153682
C           3.2945498    -0.7432937    -1.9748707
H           3.7665263     0.1939309    -2.2944948
H           3.6862144    -1.5283285    -2.6278926
C           6.3735070    -0.3455283    -0.8934710
H           6.1559682    -0.4874695    -1.9596195
H           7.4225178    -0.0335478    -0.8324754
C           5.4567031     0.7585642    -0.3166712
H           5.9827003     1.3098778     0.4749791
H           5.2088009     1.4902262    -1.0946433
C           4.1430219     0.1920837     0.2650657
H           4.3158648    -0.1024353     1.3120463
C           3.6454245    -1.0519840    -0.4827705
H           2.7239808    -1.3795296     0.0099754
C           4.7031307    -2.1842482    -0.3066985
H           4.6310755    -2.8635894    -1.1634609
H           4.4457708    -2.7828125     0.5755418
C           6.1587986    -1.6750872    -0.1587484
H           6.3998618    -1.5351013     0.9041876
H           6.8577000    -2.4336211    -0.5299698
C          -0.1610640    -0.9743228    -3.0125612
H          -0.9418375    -1.3994690    -3.6293486
N           1.1485315    -1.3911827    -3.1282510
C           1.8213574    -0.6782887    -2.2425305
N           0.9975912     0.1778624    -1.5639299
H           1.3192536     0.7993306    -0.8295015
C          -0.2805147    -0.0042927    -2.0484554
H          -1.1255489     0.5515078    -1.6700688
O           3.0905425     1.1745082     0.2414711
H           3.4304641     1.9913145     0.6384921
29
112_C10H16N2O_22-0-11-9 (-90,) energy =    -575.4161098
C           3.2257255    -1.0158495    -1.9606119
H           3.8416987    -0.2379372    -2.4332788
H           3.4355479    -1.9384047    -2.5092776
C           6.3236602    -0.2615596    -0.9109885
H           6.1561379    -0.4620206    -1.9766892
H           7.3357848     0.1512921    -0.8314147
C           5.2846359     0.7672182    -0.4026043
H           5.7455790     1.4394979     0.3347948
H           4.9367753     1.4004773    -1.2273499
C           4.0604788     0.0934081     0.2490556
H           4.3225057    -0.1923815     1.2792704
C           3.6432305    -1.2007583    -0.4702923
H           2.7706040    -1.6005674     0.0595597
C           4.8145670    -2.2241498    -0.2985196
H           4.8210713    -2.8928334    -1.1664749
H           4.6128305    -2.8600235     0.5717342
C           6.2126975    -1.5801356    -0.1347215
H           6.4164478    -1.3872030     0.9274885
H           6.9841781    -2.2846524    -0.4667741
C          -0.2144753    -0.8010083    -3.0342104
H          -1.0294301    -1.1391636    -3.6607008
N           1.0311071    -1.3842262    -3.1039668
C           1.7721411    -0.7378426    -2.2174896
N           1.0504979     0.2343293    -1.5854891
H           1.4285868     0.8104525    -0.8396390
C          -0.2287300     0.2019885    -2.0963438
H          -1.0035639     0.8700509    -1.7503376
O           2.9495441     1.0049768     0.3214058
H           3.2743167     1.8389064     0.6951027
29
112_C10H16N2O_22-0-11-9 (-75,) energy =    -575.4150420
C           3.1672770    -1.2768398    -1.8644995
H           3.8863950    -0.7018946    -2.4671368
H           3.1999349    -2.2933862    -2.2676983
C           6.2417895    -0.1716417    -0.9757799
H           6.0823726    -0.4049940    -2.0355943
H           7.2130890     0.3324961    -0.9169717
C           5.1167663     0.7682396    -0.4710376
H           5.5319571     1.5355333     0.1978292
H           4.6547630     1.3024725    -1.3098801
C           4.0200763     0.0004232     0.2880502
H           4.4045212    -0.2642396     1.2845314
C           3.6599127    -1.3339582    -0.3908251
H           2.8527235    -1.7857633     0.1994000
C           4.9259822    -2.2490861    -0.2708395
H           4.9526157    -2.9202971    -1.1365309
H           4.8243864    -2.8939069     0.6100653
C           6.2686720    -1.4826569    -0.1771021
H           6.5000462    -1.2570029     0.8726708
H           7.0827972    -2.1252002    -0.5322805
C          -0.1569563    -0.6148954    -3.0942366
H          -0.9800558    -0.8634172    -3.7514097
N           0.9911731    -1.3727280    -3.0682578
C           1.7744916    -0.7965899    -2.1675941
N           1.1735311     0.3011694    -1.6233739
H           1.5749291     0.8285928    -0.8524290
C          -0.0713438     0.4242815    -2.2006624
H          -0.7575498     1.2110513    -1.9238961
O           2.8560082     0.8202257     0.4943502
H           3.1528935     1.6473512     0.9055735
29
112_C10H16N2O_22-0-11-9 (-60,) energy =    -575.4127968
C           3.0847823    -1.4949379    -1.7347492
H           3.8594271    -1.1340542    -2.4285559
H           2.9610343    -2.5538692    -1.9834101
C           6.1031714    -0.1044646    -1.0729550
H           5.9149057    -0.3659036    -2.1209860
H           7.0363502     0.4700681    -1.0665206
C           4.9344753     0.7625461    -0.5313222
H           5.3225566     1.5973191     0.0694619
H           4.3695576     1.2080582    -1.3588974
C           3.9715633    -0.0641480     0.3357860
H           4.4661432    -0.2851586     1.2932637
C           3.6562973    -1.4342764    -0.2904216
H           2.9213069    -1.9132258     0.3695363
C           4.9858409    -2.2598108    -0.2362078
H           4.9993034    -2.9521532    -1.0855724
H           4.9926979    -2.8839804     0.6650540
C           6.2728108    -1.3960717    -0.2570797
H           6.5628950    -1.1333781     0.7690524
H           7.1033866    -1.9872784    -0.6600641
C          -0.0183774    -0.4201142    -3.2163830
H          -0.7957647    -0.5561425    -3.9569408
N           1.0330766    -1.3009284    -3.1141484
C           1.7834246    -0.8423971    -2.1219845
N           1.2548824     0.2983564    -1.5926932
H           1.6287706     0.7542577    -0.7629437
C           0.0919410     0.5762286    -2.2782396
H          -0.5297068     1.4246447    -2.0329133
O           2.7730818     0.6661259     0.6541429
H           3.0451997     1.4972222     1.0749888
29
112_C10H16N2O_22-0-11-9 (-45,) energy =    -575.4103562
C           3.0645209    -1.6288436    -1.5641060
H           3.8548372    -1.5314464    -2.3169688
H           2.7658650    -2.6849053    -1.6213958
C           5.9765320    -0.0745220    -1.1966113
H           5.7150394    -0.4023470    -2.2089024
H           6.8815423     0.5344032    -1.3015554
C           4.8192770     0.7827444    -0.6119071
H           5.2191122     1.6677212    -0.0966043
H           4.1696264     1.1488272    -1.4152436
C           3.9753441    -0.0313777     0.3781958
H           4.5603096    -0.1713167     1.3000688
C           3.6830732    -1.4456445    -0.1468322
H           2.9947958    -1.9027030     0.5759843
C           5.0401155    -2.2170458    -0.0973289
H           5.0183492    -3.0132658    -0.8501074
H           5.1438412    -2.7176548     0.8726667
C           6.2787842    -1.3070530    -0.3249508
H           6.6659635    -0.9658771     0.6442324
H           7.0867001    -1.8923299    -0.7790795
C           0.3941576    -0.0613887    -3.4079226
H          -0.1532696     0.0639708    -4.3330917
N           1.4931938    -0.8854001    -3.3342500
C           1.9112924    -0.8050390    -2.0795153
N           1.1130317     0.0241113    -1.3464079
H           1.3447227     0.3304999    -0.4048899
C           0.1425252     0.5212991    -2.1905329
H          -0.6060232     1.2229870    -1.8535203
O           2.7609497     0.6360110     0.7639492
H           2.9863774     1.5522112     0.9900417
29
112_C10H16N2O_22-0-11-9 (-30,) energy =    -575.4089410
C           2.9949969    -1.7235938    -1.4149566
H           3.7526573    -1.8263925    -2.1972820
H           2.5406313    -2.7223852    -1.3371166
C           5.7884858    -0.0047259    -1.3053130
H           5.4304800    -0.3812284    -2.2698338
H           6.6431498     0.6426975    -1.5320118
C           4.6617634     0.8189260    -0.6240038
H           5.0788220     1.7127996    -0.1385613
H           3.9427798     1.1670227    -1.3736328
C           3.9238537    -0.0219258     0.4283183
H           4.5642046    -0.0980565     1.3211133
C           3.6957925    -1.4654296    -0.0409374
H           3.0802643    -1.9370189     0.7352639
C           5.0948135    -2.1523816    -0.0434648
H           5.0678354    -3.0058066    -0.7305485
H           5.3011232    -2.5681043     0.9501875
C           6.2499419    -1.1859578    -0.4319129
H           6.7130318    -0.7867431     0.4803182
H           7.0403941    -1.7421890    -0.9488270
C           0.6945369     0.1651803    -3.4473091
H           0.3027338     0.4228156    -4.4225947
N           1.7635738    -0.6913636    -3.3099000
C           1.9761257    -0.7859804    -2.0058998
N           1.0713188    -0.0399152    -1.3038960
H           1.1906437     0.1850055    -0.3209046
C           0.2568185     0.5939744    -2.2192470
H          -0.5273086     1.2721504    -1.9165136
O           2.6827887     0.5644715     0.8599750
H           2.8505058     1.5014295     1.0484255
29
112_C10H16N2O_22-0-11-9 (-15,) energy =    -575.4081604
C           2.9055568    -1.8196749    -1.2551846
H           3.6156696    -2.1226286    -2.0292190
H           2.3059629    -2.7185824    -1.0520710
C           5.5322296     0.0612131    -1.3923422
H           5.0537248    -0.3573500    -2.2845877
H           6.3130078     0.7395475    -1.7552304
C           4.4793035     0.8537759    -0.5777150
H           4.9451058     1.7247226    -0.0946970
H           3.7017809     1.2356577    -1.2472081
C           3.8350492    -0.0288648     0.5062835
H           4.5111934    -0.0537244     1.3754259
C           3.6823617    -1.4925124     0.0701577
H           3.1516509    -1.9912601     0.8895985
C           5.1240092    -2.0764361     0.0025798
H           5.1077720    -2.9896832    -0.6026381
H           5.4353335    -2.3839640     1.0084764
C           6.1676039    -1.0677522    -0.5611640
H           6.7232422    -0.6167781     0.2721974
H           6.9125087    -1.5990931    -1.1644282
C           1.0134515     0.2864710    -3.4891410
H           0.7698868     0.6070776    -4.4934918
N           1.9956369    -0.6510449    -3.2560900
C           2.0285352    -0.8104389    -1.9417267
N           1.0895293    -0.0293334    -1.3268638
H           1.1047319     0.1600953    -0.3296392
C           0.4476963     0.6978076    -2.3085825
H          -0.3272873     1.4139271    -2.0781474
O           2.5701852     0.4756433     0.9783386
H           2.6928647     1.4153340     1.1880084
29
112_C10H16N2O_22-0-11-9 (0,) energy =    -575.4082962
C           2.8397548    -1.8461113    -1.2011060
H           3.4668442    -2.3379365    -1.9490368
H           2.1210285    -2.6097722    -0.8731949
C           5.3864816     0.1844385    -1.5100565
H           4.8501977    -0.2643514    -2.3537040
H           6.0962488     0.8998357    -1.9417149
C           4.3759573     0.9267110    -0.6045763
H           4.8636111     1.7809745    -0.1133989
H           3.5603320     1.3308007    -1.2122160
C           3.8009964    -0.0033596     0.4840256
H           4.4920938     0.0061003     1.3416857
C           3.7193597    -1.4741847     0.0520636
H           3.2869726    -2.0072148     0.9059914
C           5.1884559    -1.9675943    -0.1131441
H           5.1874447    -2.8779208    -0.7227327
H           5.5765766    -2.2631163     0.8696241
C           6.1408917    -0.9047635    -0.7315761
H           6.7240453    -0.4265010     0.0674896
H           6.8719223    -1.3945769    -1.3849932
C           1.2737007     0.3479510    -3.6018838
H           1.1319157     0.6751893    -4.6233987
N           2.1707296    -0.6500524    -3.2884363
C           2.0859385    -0.8038662    -1.9759640
N           1.1506434     0.0386171    -1.4411794
H           1.0958871     0.2273205    -0.4453852
C           0.6416437     0.8023762    -2.4716505
H          -0.1073811     1.5630244    -2.3076160
O           2.5144551     0.4246900     0.9774772
H           2.6070616     1.3492995     1.2578174
29
112_C10H16N2O_22-0-11-9 (15,) energy =    -575.4089325
C           2.6832627    -1.8930833    -1.0148741
H           3.1686171    -2.5863835    -1.7065943
H           1.8720351    -2.4608837    -0.5403042
C           5.2976052     0.2386513    -1.4812220
H           4.7558225    -0.2176023    -2.3179254
H           5.9750792     0.9829679    -1.9160591
C           4.2889152     0.9311190    -0.5372051
H           4.7671815     1.7864594    -0.0382536
H           3.4506336     1.3300890    -1.1154583
C           3.7640900    -0.0305591     0.5522443
H           4.4734499    -0.0074440     1.3942566
C           3.7020860    -1.5034719     0.1214188
H           3.3750669    -2.0548725     1.0095098
C           5.1658417    -1.9601147    -0.1886898
H           5.1278600    -2.7872041    -0.9060920
H           5.6107674    -2.3738859     0.7248067
C           6.0897907    -0.8409651    -0.7337296
H           6.6379856    -0.3727560     0.0960135
H           6.8509629    -1.2796131    -1.3894608
C           1.3943399     0.2958748    -3.5850028
H           1.3190982     0.5910110    -4.6232053
N           2.1991135    -0.7526439    -3.1950414
C           2.0479228    -0.8470921    -1.8831775
N           1.1575703     0.0835412    -1.4224605
H           1.0617692     0.3017048    -0.4362158
C           0.7514274     0.8412215    -2.5016496
H           0.0494092     1.6557677    -2.4011982
O           2.4748304     0.3622000     1.0709840
H           2.5648656     1.2699700     1.4025544
29
112_C10H16N2O_22-0-11-9 (30,) energy =    -575.4117618
C           2.4548218    -1.8084252    -0.5594069
H           2.7302129    -2.6955119    -1.1355991
H           1.7283589    -2.1451160     0.1934915
C           5.8363054     0.6942024    -0.8953477
H           6.0439875     0.8218438    -1.9638403
H           6.4914813     1.3978480    -0.3671410
C           4.3482401     1.0430511    -0.6245627
H           4.2458918     2.1094668    -0.3813131
H           3.7376125     0.8648042    -1.5151923
C           3.8307405     0.1980583     0.5428220
H           4.5719098     0.2782671     1.3530473
C           3.7271000    -1.3043012     0.2016579
H           3.7644130    -1.8528907     1.1495897
C           4.9765949    -1.6825358    -0.6605965
H           4.6845061    -1.6429609    -1.7187874
H           5.2514162    -2.7248871    -0.4589110
C           6.1806465    -0.7533545    -0.4652998
H           6.5012621    -0.7727389     0.5851159
H           7.0342012    -1.1207498    -1.0472187
C           0.8439146    -0.0792363    -3.2912976
H           0.5994058     0.0000296    -4.3423992
N           1.6443847    -1.0944355    -2.8162471
C           1.7261647    -0.8998491    -1.5075738
N           0.9933107     0.1889777    -1.1279067
H           1.0738774     0.5970137    -0.2029448
C           0.4386371     0.7370168    -2.2645071
H          -0.1820425     1.6203206    -2.2325685
O           2.5742477     0.6522362     1.0912680
H           2.7207549     1.5473156     1.4355592
29
112_C10H16N2O_22-0-11-9 (45,) energy =    -575.4163832
C           2.3989055    -1.7895616    -0.4165968
H           2.5696396    -2.7726480    -0.8653518
H           1.6828161    -1.9338555     0.4024004
C           5.8040702     0.7402225    -0.8876840
H           5.9852363     0.9685311    -1.9442397
H           6.4833041     1.3817949    -0.3126366
C           4.3311606     1.0821934    -0.5472076
H           4.2455247     2.1367016    -0.2503926
H           3.6912955     0.9517037    -1.4254474
C           3.8342161     0.1882724     0.5933648
H           4.5729473     0.2576573     1.4072428
C           3.7478071    -1.3058843     0.1952788
H           3.8927725    -1.8914374     1.1117068
C           4.8986529    -1.6329096    -0.7997953
H           4.5228936    -1.5014063    -1.8235183
H           5.1629860    -2.6931996    -0.7058859
C           6.1351551    -0.7465600    -0.6069054
H           6.5116676    -0.8623642     0.4189362
H           6.9460036    -1.0793256    -1.2654442
C           1.0025720    -0.1813216    -3.3382344
H           0.8167237    -0.1528440    -4.4038141
N           1.7226461    -1.2061668    -2.7640347
C           1.7460649    -0.9393380    -1.4666446
N           1.0528167     0.2056173    -1.1889705
H           1.0948747     0.6560133    -0.2817803
C           0.5860776     0.7126043    -2.3829421
H           0.0063915     1.6223423    -2.4348473
O           2.5640780     0.6057626     1.1388408
H           2.7008616     1.4764052     1.5441035
29
112_C10H16N2O_22-0-11-9 (60,) energy =    -575.4186507
C           2.3576795    -1.7342473    -0.2852266
H           2.4472876    -2.7756086    -0.6109412
H           1.6846687    -1.7220372     0.5794047
C           5.8465120     0.8024172    -0.7652081
H           6.0452293     1.1678985    -1.7793607
H           6.5482805     1.3285976    -0.1060439
C           4.3906284     1.1610529    -0.3847807
H           4.3404960     2.1932457    -0.0105712
H           3.7417068     1.1170514    -1.2658657
C           3.8523001     0.2019621     0.6824337
H           4.5546550     0.2171934     1.5302789
C           3.7650418    -1.2677242     0.1773414
H           4.0123264    -1.9069816     1.0356420
C           4.8206756    -1.5214393    -0.9274048
H           4.3961528    -1.2556310    -1.9041524
H           5.0357599    -2.5958343    -0.9734317
C           6.1082779    -0.7228360    -0.6900222
H           6.5148325    -0.9842808     0.2971382
H           6.8755896    -1.0087821    -1.4187459
C           0.9473881    -0.4034192    -3.3389617
H           0.7160470    -0.4891233    -4.3925006
N           1.6145432    -1.4058947    -2.6689835
C           1.7211326    -0.9851534    -1.4181954
N           1.1381502     0.2420550    -1.2622702
H           1.2027014     0.7704825    -0.3996648
C           0.6468298     0.6328141    -2.4896429
H           0.1357268     1.5731549    -2.6337884
O           2.5607650     0.6104345     1.1817540
H           2.6906762     1.4483371     1.6528964
29
112_C10H16N2O_22-0-11-9 (75,) energy =    -575.4179396
C           2.3256672    -1.7260975    -0.2297481
H           2.3793444    -2.7999766    -0.4357673
H           1.6990393    -1.5939285     0.6577180
C           5.9653054     0.7834017    -0.5609319
H           6.2790579     1.3477945    -1.4466851
H           6.6514627     1.0742574     0.2444420
C           4.5266022     1.2024660    -0.1960864
H           4.5339059     2.1919161     0.2830201
H           3.9170967     1.2989205    -1.1023936
C           3.8521149     0.1863456     0.7322489
H           4.4515821     0.1081320     1.6520162
C           3.7649900    -1.2398697     0.0899380
H           4.1295266    -1.9351910     0.8590733
C           4.7147679    -1.3736253    -1.1175835
H           4.2679017    -0.9081774    -2.0046053
H           4.8278500    -2.4364110    -1.3628702
C           6.0818858    -0.7423059    -0.8232124
H           6.5161145    -1.2382022     0.0560171
H           6.7742410    -0.9324044    -1.6512630
C           0.8139227    -0.7375177    -3.3637790
H           0.5039202    -0.9521092    -4.3780152
N           1.4380838    -1.6922314    -2.5894088
C           1.6678697    -1.1067130    -1.4259161
N           1.2150094     0.1845250    -1.4266120
H           1.3268771     0.8056674    -0.6334480
C           0.6658803     0.4357699    -2.6661976
H           0.2325732     1.3908982    -2.9234740
O           2.5305216     0.6314732     1.1040826
H           2.6401595     1.4488615     1.6149733
29
112_C10H16N2O_22-0-11-9 (90,) energy =    -575.4185668
C           2.1693392    -1.5914407    -0.2232284
H           2.3458603    -2.6655500    -0.3320645
H           1.5400025    -1.4620820     0.6677745
C           5.9613947     0.4819252     0.3714433
H           6.8398150     1.1357574     0.3270935
H           6.1240670    -0.1847833     1.2292050
C           4.6943893     1.3114623     0.6169781
H           4.8268465     1.9916722     1.4693451
H           4.4949732     1.9389918    -0.2621051
C           3.4585651     0.4171280     0.8430325
H           3.3956324     0.1388932     1.9064759
C           3.5371343    -0.8943735     0.0175634
H           4.1043477    -1.5846260     0.6585402
C           4.3642960    -0.6948992    -1.2637343
H           3.9094329     0.1024926    -1.8636616
H           4.3160853    -1.5973684    -1.8831633
C           5.8339727    -0.3446240    -0.9325557
H           6.4248050    -1.2639986    -0.8370002
H           6.2691657     0.2133596    -1.7707076
C           0.3773734    -1.2628499    -3.3423756
H          -0.0247321    -1.6946801    -4.2494558
N           1.0731290    -2.0277478    -2.4324409
C           1.4092728    -1.1976165    -1.4570965
N           0.9563267     0.0660791    -1.7095112
H           1.1547090     0.8520222    -1.1008173
C           0.2962201     0.0408844    -2.9187286
H          -0.1537253     0.9239644    -3.3479084
O           2.2558600     1.1428884     0.5123793
H           2.2551092     1.9584342     1.0367645
29
112_C10H16N2O_22-0-11-9 (105,) energy =    -575.4163447
C           2.1183542    -1.4525190    -0.1095221
H           2.2152413    -2.5395731    -0.0351260
H           1.4883466    -1.1248646     0.7245508
C           6.0083086     0.4279351     0.3611125
H           6.9172760     1.0401853     0.3413395
H           6.1802409    -0.3429818     1.1241433
C           4.8024606     1.2829041     0.7741541
H           5.0116455     1.8408924     1.6964917
H           4.6064819     2.0260279    -0.0105377
C           3.5204329     0.4356499     0.9369053
H           3.4173205     0.0992812     1.9799809
C           3.5345906    -0.8095553     0.0233361
H           4.1426935    -1.5453118     0.5689026
C           4.2739834    -0.5207475    -1.2909456
H           3.8064290     0.3368419    -1.7886519
H           4.1643286    -1.3652279    -1.9794562
C           5.7717920    -0.2308169    -1.0207393
H           6.3496006    -1.1614385    -1.0792757
H           6.1602821     0.4213490    -1.8126403
C           0.5180190    -1.3953857    -3.3508441
H           0.1784510    -1.8885232    -4.2520726
N           1.1589684    -2.0962488    -2.3506000
C           1.4232632    -1.2043068    -1.4123814
N           0.9743924     0.0380261    -1.7695559
H           1.1255917     0.8662661    -1.2061226
C           0.3951674    -0.0695306    -3.0164138
H          -0.0370345     0.7775433    -3.5280988
O           2.3573792     1.2245474     0.5980822
H           2.3788414     2.0283174     1.1399373
29
112_C10H16N2O_22-0-11-9 (120,) energy =    -575.4119227
C           2.0291336    -1.2820967    -0.1031076
H           2.0345852    -2.3426374     0.1634506
H           1.4072407    -0.7639515     0.6324211
C           6.0510442     0.3211420     0.2650144
H           6.9990559     0.8715935     0.2548726
H           6.2128662    -0.5462038     0.9187074
C           4.9367748     1.1962210     0.8540650
H           5.2349885     1.6125987     1.8252203
H           4.7631199     2.0475144     0.1819590
C           3.5967230     0.4323736     0.9833235
H           3.4900905     0.0228353     2.0001239
C           3.4939645    -0.7291694    -0.0276684
H           4.1019913    -1.5392096     0.3974960
C           4.1591641    -0.3390393    -1.3566341
H           3.7058791     0.5871522    -1.7293389
H           3.9645549    -1.1029074    -2.1159629
C           5.6855330    -0.1470092    -1.1643484
H           6.2103916    -1.0855579    -1.3811301
H           6.0508837     0.5842574    -1.8960414
C           0.5633592    -1.6057144    -3.3946002
H           0.2834382    -2.1943734    -4.2581324
N           1.1888658    -2.1821835    -2.3082005
C           1.3773962    -1.1993092    -1.4469607
N           0.8934866    -0.0152680    -1.9383694
H           0.9611696     0.8719569    -1.4576899
C           0.3711543    -0.2623686    -3.1918005
H          -0.0783483     0.5131398    -3.7937915
O           2.4902168     1.3218599     0.7244024
H           2.5845560     2.0867274     1.3127972
29
112_C10H16N2O_22-0-11-9 (135,) energy =    -575.4097068
C           1.9593649    -1.0944122    -0.1096255
H           1.8646606    -2.0845430     0.3451802
H           1.3600638    -0.4035908     0.4897161
C           6.0895166     0.2231933     0.2037448
H           7.0714695     0.7107972     0.2010684
H           6.2222845    -0.7201954     0.7497179
C           5.0659774     1.0956516     0.9403121
H           5.4341009     1.3816804     1.9343591
H           4.9230566     2.0258121     0.3736625
C           3.6797150     0.4133885     1.0570599
H           3.5890321    -0.0825629     2.0371085
C           3.4609137    -0.6460421    -0.0482489
H           4.0384502    -1.5283717     0.2563523
C           4.0803606    -0.1488332    -1.3656260
H           3.6599025     0.8347140    -1.6104532
H           3.8091709    -0.8171609    -2.1880843
C           5.6233734    -0.0568454    -1.2442067
H           6.0808573    -0.9892778    -1.5971832
H           5.9905676     0.7354403    -1.9085267
C           0.6825268    -1.8330352    -3.4140355
H           0.4987337    -2.5193626    -4.2299960
N           1.3016617    -2.2494863    -2.2544223
C           1.3581595    -1.1832293    -1.4768498
N           0.7956743    -0.0977942    -2.0976022
H           0.7425922     0.8327969    -1.7079156
C           0.3609207    -0.5014423    -3.3443404
H          -0.1291520     0.1727299    -4.0306658
O           2.6346636     1.3945602     0.9348543
H           2.8107282     2.0878788     1.5893339
29
112_C10H16N2O_22-0-11-9 (150,) energy =    -575.4103461
C           1.8832621    -0.8740283    -0.1136982
H           1.6824337    -1.7550310     0.5045665
H           1.3299688    -0.0409571     0.3292048
C           6.0923649     0.1405857     0.1930977
H           7.1034380     0.5644087     0.2054805
H           6.1790806    -0.8616507     0.6331658
C           5.1489625     0.9915349     1.0508664
H           5.5634643     1.1495438     2.0552051
H           5.0487770     1.9827011     0.5878680
C           3.7247694     0.3870241     1.1484692
H           3.6358170    -0.2006814     2.0771437
C           3.4087798    -0.5462644    -0.0469613
H           3.9313233    -1.4924490     0.1430049
C           4.0167811     0.0535907    -1.3276164
H           3.6474778     1.0804261    -1.4487459
H           3.6846859    -0.5063631    -2.2062687
C           5.5656494     0.0444558    -1.2572851
H           5.9532121    -0.8699513    -1.7229345
H           5.9591933     0.8809606    -1.8483979
C           0.8013889    -2.0063845    -3.3760900
H           0.7143503    -2.7741818    -4.1334841
N           1.4086105    -2.2606083    -2.1653564
C           1.3374962    -1.1310677    -1.4834509
N           0.7049847    -0.1608961    -2.2176273
H           0.5354691     0.7880192    -1.9164353
C           0.3557679    -0.7105003    -3.4353362
H          -0.1664665    -0.1464530    -4.1934549
O           2.7449166     1.4365093     1.1687210
H           2.9887654     2.0434590     1.8842807
29
112_C10H16N2O_22-0-11-9 (165,) energy =    -575.4124675
C           1.8574556    -0.6492429    -0.1748156
H           1.5627902    -1.3924263     0.5758289
H           1.3690841     0.2888035     0.1059155
C           6.1189871     0.0539634     0.1278698
H           7.1549066     0.4120126     0.1550161
H           6.1504271    -0.9902591     0.4659221
C           5.2475474     0.8712785     1.0884854
H           5.6933722     0.9085665     2.0911675
H           5.1947843     1.9064356     0.7242253
C           3.7938488     0.3395182     1.1687047
H           3.6969666    -0.3365768     2.0346458
C           3.3949115    -0.4487322    -0.1038857
H           3.8449406    -1.4465421    -0.0236150
C           4.0117198     0.2385850    -1.3352479
H           3.7020515     1.2921916    -1.3406531
H           3.6273925    -0.2086834    -2.2564406
C           5.5580472     0.1330761    -1.3104591
H           5.8796554    -0.7513259    -1.8737721
H           5.9883691     1.0006115    -1.8266097
C           0.9081923    -2.1737100    -3.3166230
H           0.9063116    -3.0113303    -4.0015627
N           1.5384803    -2.2512034    -2.0939467
C           1.3469424    -1.0786993    -1.5157827
N           0.6155231    -0.2517545    -2.3287652
H           0.3389997     0.6948721    -2.1117740
C           0.3265739    -0.9434527    -3.4887616
H          -0.2502636    -0.5079866    -4.2907336
O           2.8760401     1.4307302     1.3282302
H           3.1816692     1.9552256     2.0841744
29
112_C10H16N2O_22-0-11-9 (180,) energy =    -575.4144294
C           1.8149679    -0.3868562    -0.2414231
H           1.4384019    -0.9803481     0.6022376
H           1.3986209     0.6183221    -0.1187071
C           6.1078616     0.0027317     0.0994211
H           7.1610605     0.3034276     0.1477003
H           6.0857364    -1.0666476     0.3477863
C           5.2841357     0.7790496     1.1341919
H           5.7401509     0.7146273     2.1310626
H           5.2744928     1.8418992     0.8562989
C           3.8109867     0.3052486     1.1889457
H           3.7004244    -0.4621423     1.9734282
C           3.3548551    -0.3144827    -0.1530911
H           3.7205249    -1.3490800    -0.1771034
C           4.0113413     0.4408879    -1.3213237
H           3.7722218     1.5084859    -1.2249855
H           3.5910727     0.1077738    -2.2755565
C           5.5462198     0.2312773    -1.3235924
H           5.8031108    -0.6266725    -1.9566007
H           6.0312170     1.1053811    -1.7763054
C           0.9507052    -2.2849765    -3.1990951
H           1.0251369    -3.1771294    -3.8067579
N           1.6295870    -2.1740517    -2.0054333
C           1.3234666    -0.9815618    -1.5267918
N           0.4709652    -0.3236088    -2.3748446
H           0.0954986     0.6030059    -2.2334286
C           0.2225225    -1.1509080    -3.4530941
H          -0.4266880    -0.8598384    -4.2650454
O           2.9430219     1.4065340     1.4916583
H           3.2817825     1.8269184     2.2970643
