28
051_C13H12N2O_3-0-24-25 (-165,) energy =    -687.3455235
N           1.5567561    -0.8282156    -1.1166740
C           1.5988833     0.3454322    -2.0057906
H           2.5578630     0.8441960    -1.8926869
C           2.6740172    -1.2018780    -0.3648649
H           0.7889479     1.0424244    -1.7725640
C           5.4773029     1.7204863     1.0903915
H           6.1946265     2.4367789     1.4819155
H           1.4732444     0.0240565    -3.0414246
C           5.9143041     0.4858471     0.6035187
H           6.9724160     0.2392002     0.6158380
C           4.9933032    -0.4371085     0.1131984
H           5.3153430    -1.4125904    -0.2370476
C           3.6280599    -0.1225619     0.0731883
C           3.1945765     1.1147263     0.5705969
H           2.1351149     1.3546394     0.5745088
C           4.1155725     2.0285536     1.0826683
H           3.7688464     2.9794063     1.4780566
O           2.8836603    -2.3570122    -0.0128683
C          -1.8706462    -3.1377904    -1.6689024
H          -2.7876828    -3.6852132    -1.8622450
C          -1.0003594    -3.4995253    -0.6370523
H          -1.2269123    -4.3468559     0.0047277
C           0.1665931    -2.7781039    -0.4246843
H           0.8598654    -3.0559082     0.3539124
C           0.4308754    -1.6825902    -1.2723536
N          -0.4019371    -1.3259699    -2.2569733
C          -1.5177803    -2.0406534    -2.4449288
H          -2.1563941    -1.7074670    -3.2616632
28
051_C13H12N2O_3-0-24-25 (-150,) energy =    -687.3450723
N           1.4996548    -0.7643857    -1.0643111
C           1.5145445     0.4164115    -1.9441447
H           2.4220472     0.9868783    -1.7651673
C           2.6532912    -1.1809058    -0.3914472
H           0.6408684     1.0453866    -1.7509902
C           5.5339627     1.6610670     1.0692601
H           6.2720730     2.3563163     1.4600739
H           1.4782649     0.1035946    -2.9899629
C           5.9424985     0.4490218     0.5067929
H           6.9988258     0.1989311     0.4595796
C           4.9957313    -0.4477973     0.0169336
H           5.2967527    -1.4068780    -0.3923509
C           3.6317552    -0.1280370     0.0542827
C           3.2270501     1.0859716     0.6276413
H           2.1696242     1.3267880     0.6916197
C           4.1747834     1.9730234     1.1381460
H           3.8511065     2.9055476     1.5923997
O           2.8656002    -2.3538273    -0.1089670
C          -1.7893619    -3.2402371    -1.7013556
H          -2.6657111    -3.8423916    -1.9192790
C          -1.0259467    -3.4451862    -0.5478405
H          -1.2990676    -4.2179400     0.1657414
C           0.0881748    -2.6537972    -0.3078716
H           0.6989290    -2.8018885     0.5709248
C           0.4110233    -1.6607623    -1.2528410
N          -0.3162493    -1.4535930    -2.3538326
C          -1.3890818    -2.2276900    -2.5644701
H          -1.9485942    -2.0182145    -3.4748034
28
051_C13H12N2O_3-0-24-25 (-135,) energy =    -687.3439398
N           1.4238092    -0.7172735    -1.0237535
C           1.4181476     0.4713990    -1.8925671
H           2.3130447     1.0603266    -1.7088836
C           2.5981989    -1.1726092    -0.4141787
H           0.5334999     1.0817898    -1.6861028
C           5.5912592     1.5823631     0.9861930
H           6.3584074     2.2556553     1.3591564
H           1.3865476     0.1694475    -2.9417777
C           5.9520307     0.3734131     0.3856549
H           7.0003314     0.1037117     0.2910546
C           4.9683164    -0.4951657    -0.0817854
H           5.2325915    -1.4518313    -0.5209854
C           3.6136404    -0.1499015     0.0171970
C           3.2571644     1.0604357     0.6289327
H           2.2082098     1.3196385     0.7418557
C           4.2425567     1.9191140     1.1163292
H           3.9564179     2.8488432     1.6005616
O           2.7932574    -2.3570197    -0.1713647
C          -1.7298312    -3.3402572    -1.7405354
H          -2.5630904    -3.9930176    -1.9809409
C          -1.1088556    -3.3769941    -0.4880358
H          -1.4517566    -4.0649370     0.2800009
C          -0.0494161    -2.5201471    -0.2256724
H           0.4554921    -2.5268441     0.7314334
C           0.3637376    -1.6452889    -1.2449408
N          -0.2198068    -1.6033170    -2.4433719
C          -1.2478853    -2.4312784    -2.6753413
H          -1.6980541    -2.3585746    -3.6640056
28
051_C13H12N2O_3-0-24-25 (-120,) energy =    -687.3423152
N           1.3618911    -0.6679088    -0.9299473
C           1.2822638     0.5872004    -1.6929281
H           2.2586163     1.0666625    -1.7249342
C           2.5545396    -1.1451399    -0.3852662
H           0.5617540     1.2754975    -1.2351167
C           5.6249476     1.5537214     0.9575204
H           6.4125774     2.2125842     1.3132817
H           0.9595360     0.3609339    -2.7109900
C           5.9499027     0.3506214     0.3254642
H           6.9910083     0.0709929     0.1891245
C           4.9401069    -0.4992970    -0.1198978
H           5.1766330    -1.4518858    -0.5830183
C           3.5936611    -0.1412365     0.0335854
C           3.2737471     1.0632550     0.6755970
H           2.2332384     1.3339958     0.8301419
C           4.2858367     1.9032761     1.1407067
H           4.0280331     2.8285830     1.6488337
O           2.7479012    -2.3395249    -0.1928188
C          -1.6288766    -3.4410677    -1.7746778
H          -2.4078054    -4.1452100    -2.0500027
C          -1.1844751    -3.3234640    -0.4552503
H          -1.6119005    -3.9391841     0.3313523
C          -0.1896697    -2.4011125    -0.1560314
H           0.1855896    -2.2785771     0.8530304
C           0.3355196    -1.6291012    -1.2009411
N          -0.0730586    -1.7394910    -2.4645515
C          -1.0436241    -2.6218092    -2.7358101
H          -1.3564858    -2.6764906    -3.7771228
28
051_C13H12N2O_3-0-24-25 (-105,) energy =    -687.3404105
N           1.2979619    -0.6478962    -0.8421823
C           1.1762976     0.6162065    -1.5837224
H           2.1223669     1.1539778    -1.5647727
C           2.5208233    -1.1493434    -0.3964265
H           0.3987855     1.2492363    -1.1400995
C           5.6458255     1.4929226     0.9334972
H           6.4482715     2.1375079     1.2822752
H           0.9105858     0.3997983    -2.6220217
C           5.9434823     0.3176351     0.2386838
H           6.9777464     0.0453902     0.0465641
C           4.9154332    -0.5141944    -0.1989238
H           5.1312577    -1.4456963    -0.7122892
C           3.5768064    -0.1654937     0.0271044
C           3.2847766     1.0103999     0.7324867
H           2.2516590     1.2706955     0.9442244
C           4.3158103     1.8323137     1.1883646
H           4.0801194     2.7351814     1.7453094
O           2.7212434    -2.3525282    -0.2841311
C          -1.6084017    -3.4887104    -1.7525641
H          -2.3551797    -4.2201672    -2.0455186
C          -1.3304745    -3.2302303    -0.4092146
H          -1.8587551    -3.7592642     0.3791921
C          -0.3672026    -2.2780574    -0.0924122
H          -0.1147913    -2.0404632     0.9350772
C           0.2896793    -1.6263971    -1.1408221
N           0.0407538    -1.8699468    -2.4269969
C          -0.8991961    -2.7775644    -2.7186120
H          -1.0835082    -2.9471678    -3.7780644
28
051_C13H12N2O_3-0-24-25 (-90,) energy =    -687.3385072
N           1.2909221    -0.6389528    -0.7811123
C           1.1200936     0.6383431    -1.4889258
H           2.0215296     1.2417284    -1.3976818
C           2.5374646    -1.1403712    -0.4100859
H           0.2760449     1.1960654    -1.0673319
C           5.6873132     1.4940269     0.8772618
H           6.4966212     2.1365812     1.2137445
H           0.9269466     0.4475832    -2.5498448
C           5.9654797     0.3627288     0.1056251
H           6.9918188     0.1230011    -0.1588189
C           4.9292160    -0.4672469    -0.3163922
H           5.1322550    -1.3662055    -0.8896244
C           3.6001473    -0.1591013     0.0037752
C           3.3278208     0.9719931     0.7859195
H           2.3036202     1.1978445     1.0690320
C           4.3683629     1.7913616     1.2249565
H           4.1489570     2.6589000     1.8415658
O           2.7518025    -2.3442562    -0.3475642
C          -1.5349208    -3.5247917    -1.7992885
H          -2.2503224    -4.2760687    -2.1194468
C          -1.4561807    -3.1172714    -0.4679044
H          -2.1126769    -3.5455027     0.2845651
C          -0.5189098    -2.1484267    -0.1169932
H          -0.4129827    -1.7969112     0.9036831
C           0.3055656    -1.6331024    -1.1189518
N           0.2435494    -2.0145798    -2.3947766
C          -0.6668374    -2.9390271    -2.7209374
H          -0.6967581    -3.2284258    -3.7699974
28
051_C13H12N2O_3-0-24-25 (-75,) energy =    -687.3365963
N           1.3145792    -0.6771316    -0.7237114
C           1.0853506     0.6191638    -1.3794231
H           1.9383431     1.2774116    -1.2241031
C           2.5894394    -1.1584912    -0.4258142
H           0.1904354     1.0967135    -0.9652828
C           5.7257341     1.5146116     0.8176753
H           6.5327067     2.1666735     1.1412224
H           0.9429195     0.4745502    -2.4570874
C           5.9945423     0.4311691    -0.0227455
H           7.0113652     0.2379896    -0.3537334
C           4.9619806    -0.4116532    -0.4284651
H           5.1602662    -1.2751203    -1.0554378
C           3.6439917    -0.1629483    -0.0226546
C           3.3818194     0.9194355     0.8288434
H           2.3688966     1.0961278     1.1795972
C           4.4198369     1.7509748     1.2508419
H           4.2089922     2.5798881     1.9212622
O           2.8356689    -2.3566296    -0.4073994
C          -1.4644688    -3.5695512    -1.8478074
H          -2.1609340    -4.3282208    -2.1915522
C          -1.5676966    -3.0145126    -0.5735768
H          -2.3509636    -3.3304240     0.1100554
C          -0.6409886    -2.0472265    -0.1873055
H          -0.6671559    -1.5899072     0.7961386
C           0.3481185    -1.6783247    -1.0996939
N           0.4572826    -2.1975625    -2.3234102
C          -0.4371252    -3.1244211    -2.6818792
H          -0.3240785    -3.5328715    -3.6846776
28
051_C13H12N2O_3-0-24-25 (-60,) energy =    -687.3345159
N           1.3259149    -0.7309112    -0.6727660
C           1.0436811     0.6020497    -1.2268263
H           1.8669378     1.2820618    -1.0167764
C           2.6187958    -1.1872548    -0.4142152
H           0.1292549     1.0086163    -0.7814198
C           5.7411939     1.5315105     0.7702655
H           6.5463542     2.1932645     1.0781993
H           0.9066162     0.5419870    -2.3141129
C           5.9866535     0.5112098    -0.1522416
H           6.9836936     0.3767617    -0.5629463
C           4.9574730    -0.3451550    -0.5381438
H           5.1426780    -1.1620279    -1.2285470
C           3.6634942    -0.1712777    -0.0296686
C           3.4253539     0.8473524     0.9033967
H           2.4338392     0.9646873     1.3322012
C           4.4617233     1.6911446     1.3051774
H           4.2701697     2.4695353     2.0389776
O           2.8975196    -2.3770004    -0.4085479
C          -1.4760488    -3.5723120    -1.8705760
H          -2.1734792    -4.3240947    -2.2273164
C          -1.7278896    -2.8389983    -0.7124240
H          -2.6316838    -3.0058130    -0.1327781
C          -0.7886466    -1.8950912    -0.3002948
H          -0.9252887    -1.3120924     0.6047946
C           0.3585636    -1.7180096    -1.0772539
N           0.6083030    -2.4061408    -2.1919418
C          -0.2953027    -3.3160554    -2.5700361
H          -0.0631144    -3.8661419    -3.4803779
28
051_C13H12N2O_3-0-24-25 (-45,) energy =    -687.3325795
N           1.4061945    -0.8049156    -0.7616593
C           1.0052425     0.5950000    -0.9451340
H           1.8820324     1.2118836    -1.1401116
C           2.7025037    -1.2001388    -0.4292317
H           0.4849193     1.0037070    -0.0691915
C           5.7154660     1.6535169     0.7356463
H           6.4969733     2.3456615     1.0375245
H           0.3358525     0.6649774    -1.8069869
C           5.9692298     0.6969153    -0.2506670
H           6.9490263     0.6417558    -0.7173646
C           4.9718457    -0.1996269    -0.6282095
H           5.1696547    -0.9697915    -1.3671891
C           3.6971246    -0.1282073    -0.0493549
C           3.4519945     0.8276900     0.9455771
H           2.4805196     0.8711641     1.4302486
C           4.4590244     1.7097858     1.3404299
H           4.2617595     2.4379950     2.1226472
O           3.0485594    -2.3697633    -0.3987529
C          -1.4259831    -3.6375986    -1.9056339
H          -2.1266952    -4.3969150    -2.2387864
C          -1.8063817    -2.6339270    -1.0157404
H          -2.8191613    -2.5900110    -0.6243218
C          -0.8599051    -1.6943288    -0.6169945
H          -1.1124677    -0.9154270     0.0953670
C           0.4368454    -1.7842897    -1.1436610
N           0.8071295    -2.7318328    -2.0061844
C          -0.1080840    -3.6379100    -2.3634811
H           0.2315289    -4.3990185    -3.0641963
28
051_C13H12N2O_3-0-24-25 (-30,) energy =    -687.3310692
N           1.4423279    -0.8860717    -0.7936927
C           1.0380635     0.5230870    -0.8880308
H           1.9096448     1.1462297    -1.0810916
C           2.7680358    -1.2583301    -0.5264684
H           0.5530128     0.8865580     0.0267795
C           5.6926267     1.6317680     0.7724172
H           6.4533274     2.3315683     1.1078674
H           0.3388602     0.6398022    -1.7204135
C           5.9427870     0.7927209    -0.3163237
H           6.8994690     0.8369948    -0.8297704
C           4.9726930    -0.1145811    -0.7377320
H           5.1720813    -0.7959769    -1.5590815
C           3.7270593    -0.1692958    -0.0976195
C           3.4854341     0.6690402     0.9990856
H           2.5371761     0.6129994     1.5268755
C           4.4666530     1.5602495     1.4356301
H           4.2734616     2.1959308     2.2956567
O           3.1729978    -2.4053995    -0.5794413
C          -1.4716887    -3.6733157    -1.8612456
H          -2.1923247    -4.4272781    -2.1620855
C          -1.8584738    -2.5240189    -1.1724630
H          -2.8992580    -2.3556207    -0.9088939
C          -0.8905798    -1.5948992    -0.8069259
H          -1.1661555    -0.7091099    -0.2453578
C           0.4494015    -1.8418086    -1.1605333
N           0.8249355    -2.9359816    -1.8244221
C          -0.1173758    -3.8237083    -2.1549139
H           0.2354808    -4.7011334    -2.6950071
28
051_C13H12N2O_3-0-24-25 (-15,) energy =    -687.3305495
N           1.4892607    -0.7871294    -1.1935902
C           1.0620909     0.6134200    -1.1508409
H           1.9218903     1.2577600    -1.3247841
C           2.8737306    -1.0911340    -1.1698997
H           0.6088395     0.8981478    -0.1928553
C           5.5555430     1.4093825     1.0896118
H           6.2533758     2.0157562     1.6608846
H           0.3330029     0.7924200    -1.9482304
C           5.9309128     0.8947653    -0.1542885
H           6.9210756     1.0995499    -0.5522397
C           5.0409312     0.1071172    -0.8808201
H           5.3296144    -0.3272721    -1.8327670
C           3.7544293    -0.1487793    -0.3865023
C           3.3866116     0.3649392     0.8647258
H           2.4049928     0.1414324     1.2728249
C           4.2865000     1.1342606     1.6025575
H           3.9982821     1.5149704     2.5787203
O           3.3667149    -2.0539813    -1.7223823
C          -1.4787556    -3.7138704    -1.3734072
H          -2.2128299    -4.5104571    -1.4399362
C          -1.8355492    -2.4123728    -1.0235073
H          -2.8683532    -2.1603579    -0.7972030
C          -0.8579815    -1.4258747    -0.9559878
H          -1.1332740    -0.4205950    -0.6637227
C           0.4776489    -1.7767144    -1.2524422
N           0.8213188    -3.0226772    -1.5906093
C          -0.1316685    -3.9557819    -1.6353756
H           0.2069616    -4.9547207    -1.9077584
28
051_C13H12N2O_3-0-24-25 (0,) energy =    -687.3324249
N           1.4265587    -0.6608173    -1.2365666
C           0.9765885     0.7257829    -1.1323582
H           1.8385874     1.3882271    -1.1890388
C           2.8198866    -0.9323373    -1.3417505
H           0.4461035     0.9259698    -0.1927837
C           5.5741789     1.2496703     1.1417170
H           6.2880609     1.7793014     1.7669651
H           0.3086455     0.9666239    -1.9681985
C           5.9404218     0.8345077    -0.1416974
H           6.9394744     1.0404598    -0.5160401
C           5.0287640     0.1468421    -0.9387404
H           5.3048157    -0.2074131    -1.9268141
C           3.7319216    -0.1102594    -0.4717169
C           3.3729711     0.3034933     0.8187636
H           2.3817568     0.0772318     1.2009058
C           4.2929102     0.9750312     1.6238677
H           4.0111758     1.2794491     2.6282224
O           3.2754036    -1.7776753    -2.0845940
C          -1.3985614    -3.7204739    -1.2239596
H          -2.0893092    -4.5574048    -1.2275593
C          -1.8394225    -2.4027979    -1.1158741
H          -2.8990667    -2.1767537    -1.0289085
C          -0.9152687    -1.3628306    -1.1216016
H          -1.2598457    -0.3404535    -1.0356040
C           0.4551533    -1.6820203    -1.2349927
N           0.8817439    -2.9460563    -1.3372005
C          -0.0229207    -3.9250968    -1.3255548
H           0.3803147    -4.9339736    -1.4051927
28
051_C13H12N2O_3-0-24-25 (15,) energy =    -687.3343368
N           1.9272955    -1.3512752    -1.0825853
C           2.6427953    -1.0658769    -2.3238450
H           3.6172581    -0.6416930    -2.0882306
C           2.6122031    -1.2477665     0.1603993
H           2.0938984    -0.3547945    -2.9529035
C           5.0952083     2.1843719     0.9027128
H           5.7190446     3.0479612     1.1174930
H           2.8061060    -1.9870332    -2.8982748
C           5.4055189     0.9411522     1.4610869
H           6.2703980     0.8364173     2.1104531
C           4.6008050    -0.1634825     1.1938048
H           4.8107722    -1.1306196     1.6393575
C           3.4912691    -0.0423754     0.3452830
C           3.1812852     1.2088176    -0.2061731
H           2.3029964     1.3161001    -0.8361427
C           3.9775630     2.3185031     0.0764726
H           3.7229569     3.2877306    -0.3436947
O           2.5037802    -2.0768747     1.0414594
C          -1.9719790    -2.7920816    -1.2380229
H          -2.9940980    -3.1559300    -1.2158154
C          -1.2544541    -2.6880816    -2.4280226
H          -1.7050367    -2.9741102    -3.3749026
C           0.0563761    -2.2209481    -2.4041970
H           0.6204201    -2.1507034    -3.3256523
C           0.6157012    -1.8577150    -1.1621962
N          -0.0725984    -1.9481481    -0.0173658
C          -1.3239557    -2.4042369    -0.0649095
H          -1.8392561    -2.4576001     0.8933472
28
051_C13H12N2O_3-0-24-25 (30,) energy =    -687.3357143
N           1.8662630    -1.2217419    -1.1031476
C           2.5730475    -0.9480741    -2.3529187
H           3.4886889    -0.4000196    -2.1377713
C           2.5753218    -1.1865826     0.1268358
H           1.9531179    -0.3469356    -3.0271316
C           5.1730186     2.1400149     0.9496615
H           5.8260330     2.9764862     1.1841959
H           2.8505501    -1.8781272    -2.8677751
C           5.4632451     0.8654067     1.4442837
H           6.3418677     0.7091419     2.0641918
C           4.6211130    -0.2045845     1.1517419
H           4.8161939    -1.1955404     1.5491821
C           3.4932020    -0.0163167     0.3409520
C           3.2027678     1.2660718    -0.1459192
H           2.3099121     1.4231544    -0.7442506
C           4.0374471     2.3402475     0.1620987
H           3.7984338     3.3336974    -0.2076478
O           2.4512310    -2.0438344     0.9801717
C          -1.9533743    -2.8609396    -1.2200408
H          -2.9616275    -3.2612179    -1.1887474
C          -1.1833464    -2.9015302    -2.3802297
H          -1.5751099    -3.3445410    -3.2921437
C           0.1073198    -2.3789467    -2.3664132
H           0.7198332    -2.4243960    -3.2585712
C           0.5869430    -1.8129838    -1.1709449
N          -0.1535492    -1.7579172    -0.0564333
C          -1.3802047    -2.2774681    -0.0888114
H          -1.9414654    -2.2134207     0.8424667
28
051_C13H12N2O_3-0-24-25 (45,) energy =    -687.3362545
N           1.7887198    -1.0758131    -1.1093365
C           2.4823880    -0.7972206    -2.3673528
H           3.3270339    -0.1368344    -2.1786169
C           2.5156993    -1.0989335     0.1049080
H           1.8021026    -0.3073332    -3.0710413
C           5.2706749     2.0861346     0.9719626
H           5.9641800     2.8860377     1.2175675
H           2.8700424    -1.7137718    -2.8341276
C           5.5306961     0.7799149     1.3954148
H           6.4262195     0.5624131     1.9711272
C           4.6367751    -0.2436265     1.0895470
H           4.8089531    -1.2583216     1.4343441
C           3.4868238     0.0241035     0.3346126
C           3.2260761     1.3379057    -0.0799569
H           2.3156833     1.5546337    -0.6314925
C           4.1130170     2.3650269     0.2424862
H           3.8974256     3.3831600    -0.0701625
O           2.3574308    -1.9660979     0.9448575
C          -1.9289291    -2.9368739    -1.2174207
H          -2.9182445    -3.3823392    -1.1888649
C          -1.0783082    -3.1127842    -2.3061773
H          -1.3842322    -3.7119250    -3.1597874
C           0.1837504    -2.5229140    -2.2896211
H           0.8662154    -2.6694328    -3.1186223
C           0.5474902    -1.7565994    -1.1711782
N          -0.2717031    -1.5668955    -0.1292908
C          -1.4666296    -2.1569997    -0.1552771
H          -2.0962852    -1.9842891     0.7164255
28
051_C13H12N2O_3-0-24-25 (60,) energy =    -687.3358647
N           1.7028647    -0.9517633    -1.1034983
C           2.3534798    -0.6165806    -2.3724459
H           3.1442802     0.1111794    -2.1984963
C           2.4397478    -1.0151103     0.0929192
H           1.6201678    -0.1826219    -3.0584649
C           5.3672967     2.0104656     0.9698719
H           6.1048193     2.7691141     1.2180936
H           2.8064202    -1.4950835    -2.8534538
C           5.5907776     0.6760913     1.3195216
H           6.5017820     0.3952003     1.8410029
C           4.6403559    -0.2947934     1.0111766
H           4.7852642    -1.3302765     1.3028333
C           3.4696163     0.0544694     0.3252117
C           3.2455511     1.3962014    -0.0143690
H           2.3194566     1.6758039    -0.5087472
C           4.1892338     2.3702829     0.3120959
H           4.0019566     3.4102286     0.0585049
O           2.2379925    -1.8756736     0.9339970
C          -1.9068456    -3.0193943    -1.2356299
H          -2.8748974    -3.5103351    -1.2227740
C          -0.9437370    -3.3305015    -2.1928464
H          -1.1360478    -4.0841801    -2.9518371
C           0.2837673    -2.6720793    -2.1587782
H           1.0584769    -2.9136974    -2.8781166
C           0.4960148    -1.7085148    -1.1644823
N          -0.4292285    -1.3883936    -0.2537304
C          -1.5901737    -2.0455569    -0.2864819
H          -2.3127488    -1.7663943     0.4788600
28
051_C13H12N2O_3-0-24-25 (75,) energy =    -687.3360775
N           1.6945756    -0.9610229    -1.1400216
C           2.1021585    -0.2612050    -2.3558602
H           3.1339726     0.0770679    -2.2640340
C           2.3774612    -0.9733146     0.0661005
H           1.4595886     0.6047588    -2.5621074
C           5.4582205     1.8992975     0.9500861
H           6.2353928     2.6159324     1.2021744
H           2.0383967    -0.9434451    -3.2109416
C           5.6283710     0.5457736     1.2535486
H           6.5372979     0.2075798     1.7438200
C           4.6268688    -0.3707496     0.9416464
H           4.7300791    -1.4191129     1.2033653
C           3.4574621     0.0499539     0.2934441
C           3.2882275     1.4101276     0.0010137
H           2.3675215     1.7534372    -0.4619319
C           4.2825017     2.3310657     0.3340440
H           4.1359578     3.3856320     0.1163798
O           2.1145237    -1.7961091     0.9348076
C          -1.8520809    -3.1280989    -1.3580495
H          -2.8055855    -3.6466750    -1.3837073
C          -0.7287737    -3.6411466    -2.0058090
H          -0.7793976    -4.5812192    -2.5483998
C           0.4688032    -2.9341703    -1.9307477
H           1.3757152    -3.3051320    -2.3977551
C           0.4877941    -1.7334348    -1.2150321
N          -0.5810050    -1.2263555    -0.5989557
C          -1.7212353    -1.9231261    -0.6672012
H          -2.5736893    -1.4899553    -0.1467600
28
051_C13H12N2O_3-0-24-25 (90,) energy =    -687.3367181
N           1.7186431    -0.9413606    -1.1353818
C           1.9864265    -0.0837999    -2.2871371
H           3.0052586     0.2999403    -2.2384344
C           2.4152405    -0.9678116     0.0590053
H           1.2845781     0.7582646    -2.3401375
C           5.5270982     1.8678221     0.9584720
H           6.3136705     2.5727397     1.2143369
H           1.8824638    -0.6748895    -3.2040395
C           5.7224328     0.4981177     1.1549516
H           6.6606482     0.1352565     1.5660214
C           4.7093155    -0.4041889     0.8387649
H           4.8346406    -1.4670135     1.0205539
C           3.5016518     0.0492386     0.2905848
C           3.3073380     1.4247522     0.1060211
H           2.3597723     1.7920063    -0.2775090
C           4.3144160     2.3298095     0.4448912
H           4.1489800     3.3954956     0.3111035
O           2.1732876    -1.8130911     0.9139818
C          -1.8407607    -3.0875263    -1.3309257
H          -2.7996191    -3.5958472    -1.3635078
C          -0.6626778    -3.7369242    -1.6997844
H          -0.6772020    -4.7734025    -2.0254780
C           0.5380987    -3.0343392    -1.6344051
H           1.4850593    -3.4937651    -1.8969126
C           0.5045154    -1.7075048    -1.1996800
N          -0.6128268    -1.0727618    -0.8439396
C          -1.7604097    -1.7595129    -0.9124701
H          -2.6568205    -1.2183368    -0.6147718
28
051_C13H12N2O_3-0-24-25 (105,) energy =    -687.3383503
N           1.6995007    -0.9664188    -1.1867712
C           1.8895697     0.0225376    -2.2487348
H           2.9080442     0.4083496    -2.2173276
C           2.4278923    -1.0434328    -0.0097826
H           1.1791997     0.8530077    -2.1672987
C           5.4771155     1.8196133     1.0120966
H           6.2489732     2.5287508     1.2991386
H           1.7345000    -0.4682405    -3.2153570
C           5.7258270     0.4463169     1.0819047
H           6.6911515     0.0843944     1.4254380
C           4.7316121    -0.4623076     0.7263897
H           4.9004523    -1.5312087     0.8115347
C           3.4887371    -0.0088531     0.2629876
C           3.2416363     1.3693476     0.2051925
H           2.2689951     1.7338482    -0.1120589
C           4.2303517     2.2784800     0.5847794
H           4.0240209     3.3448094     0.5494057
O           2.2426357    -1.9497488     0.7954747
C          -1.8793117    -3.0774086    -1.3927982
H          -2.8444319    -3.5726515    -1.4384629
C          -0.6877232    -3.7978880    -1.4839209
H          -0.6989100    -4.8780851    -1.6004741
C           0.5209115    -3.1099143    -1.4213997
H           1.4747400    -3.6210464    -1.4789307
C           0.4819236    -1.7223391    -1.2632995
N          -0.6477963    -1.0208319    -1.1599014
C          -1.8029300    -1.6942854    -1.2360875
H          -2.7083938    -1.0951805    -1.1565110
28
051_C13H12N2O_3-0-24-25 (120,) energy =    -687.3406590
N           1.6934339    -0.9567168    -1.1970654
C           1.8451637     0.1026230    -2.1995866
H           2.8744486     0.4593435    -2.2010579
C           2.4797345    -1.0834022    -0.0587360
H           1.1629667     0.9401929    -2.0244563
C           5.4777131     1.8161123     1.0129375
H           6.2381439     2.5324848     1.3121911
H           1.6201686    -0.3187314    -3.1838708
C           5.7747300     0.4512249     0.9784704
H           6.7666837     0.1027183     1.2529603
C           4.7954018    -0.4674573     0.6076547
H           5.0039293    -1.5327078     0.6127876
C           3.5176478    -0.0298826     0.2316103
C           3.2231117     1.3394591     0.2776710
H           2.2260050     1.6894859     0.0274869
C           4.1977124     2.2566213     0.6733962
H           3.9546791     3.3147732     0.7186855
O           2.3664233    -2.0399355     0.7005124
C          -1.8881414    -3.0576513    -1.4492812
H          -2.8545672    -3.5473306    -1.5190522
C          -0.7092005    -3.7901186    -1.2996798
H          -0.7331344    -4.8752981    -1.2498077
C           0.5045644    -3.1146794    -1.2191138
H           1.4430222    -3.6390649    -1.0961918
C           0.4840439    -1.7166465    -1.2851232
N          -0.6360027    -1.0020576    -1.4137303
C          -1.7933670    -1.6689169    -1.5072051
H          -2.6858837    -1.0561176    -1.6221845
28
051_C13H12N2O_3-0-24-25 (135,) energy =    -687.3428768
N           1.6704893    -0.9710987    -1.1600518
C           1.8055646     0.1282083    -2.1253404
H           2.8449297     0.4521065    -2.1587155
C           2.5251520    -1.1453176    -0.0764657
H           1.1599703     0.9774331    -1.8852452
C           5.4694003     1.7993172     1.0206542
H           6.2179310     2.5255727     1.3259319
H           1.5179396    -0.2432498    -3.1119741
C           5.8144546     0.4522967     0.8849750
H           6.8316434     0.1271708     1.0858665
C           4.8511165    -0.4802930     0.5066954
H           5.0997842    -1.5343523     0.4335444
C           3.5400860    -0.0719156     0.2241428
C           3.1982941     1.2793070     0.3709590
H           2.1775767     1.6037592     0.1917705
C           4.1578509     2.2084786     0.7745591
H           3.8790543     3.2513778     0.8986769
O           2.4890628    -2.1445801     0.6339598
C          -1.9139056    -3.0579716    -1.5081766
H          -2.8806377    -3.5398935    -1.6160375
C          -0.7745921    -3.7775652    -1.1437195
H          -0.8301940    -4.8476013    -0.9625014
C           0.4445657    -3.1189267    -1.0213012
H           1.3468186    -3.6401727    -0.7368613
C           0.4709520    -1.7372217    -1.2644655
N          -0.6132572    -1.0361524    -1.6108045
C          -1.7727514    -1.6918049    -1.7374591
H          -2.6292377    -1.0859308    -2.0289775
28
051_C13H12N2O_3-0-24-25 (150,) energy =    -687.3444415
N           1.6540107    -0.9640800    -1.1407946
C           1.7694623     0.1578331    -2.0856934
H           2.8062918     0.4877862    -2.1219138
C           2.5861207    -1.1815772    -0.1299980
H           1.1223551     0.9970116    -1.8171939
C           5.4555945     1.8184089     1.0119737
H           6.1870029     2.5571206     1.3286121
H           1.4680711    -0.1905393    -3.0755081
C           5.8484891     0.4975221     0.7820730
H           6.8858569     0.2053611     0.9205757
C           4.9079584    -0.4522287     0.3893077
H           5.1948008    -1.4888183     0.2429153
C           3.5705323    -0.0844163     0.1867363
C           3.1811120     1.2404288     0.4271590
H           2.1413132     1.5306288     0.3088104
C           4.1190907     2.1849255     0.8449384
H           3.8043663     3.2061160     1.0420595
O           2.6383565    -2.2221976     0.5176661
C          -1.9190582    -3.0654264    -1.5697128
H          -2.8816213    -3.5470325    -1.7104789
C          -0.8330263    -3.7431248    -1.0135529
H          -0.9266016    -4.7828019    -0.7110896
C           0.3852067    -3.0912349    -0.8536668
H           1.2432123    -3.5865020    -0.4269313
C           0.4683442    -1.7464627    -1.2574770
N          -0.5661811    -1.0894161    -1.7962373
C          -1.7235666    -1.7411154    -1.9501798
H          -2.5328233    -1.1654629    -2.3969944
28
051_C13H12N2O_3-0-24-25 (165,) energy =    -687.3452792
N           1.6401032    -0.9437838    -1.1237186
C           1.7358299     0.1974993    -2.0500604
H           2.7599335     0.5644071    -2.0556200
C           2.6475265    -1.2115141    -0.1984008
H           1.0528837     1.0065067    -1.7774257
C           5.4502056     1.8119611     1.0404480
H           6.1656069     2.5556175     1.3811572
H           1.4654489    -0.1399508    -3.0519736
C           5.8801340     0.5224120     0.7177460
H           6.9306578     0.2597942     0.8075373
C           4.9605660    -0.4344941     0.2938750
H           5.2770458    -1.4493193     0.0745271
C           3.6060141    -0.1026106     0.1537770
C           3.1795331     1.1906692     0.4864183
H           2.1272751     1.4497681     0.4141787
C           4.0975371     2.1405964     0.9345513
H           3.7551329     3.1362290     1.2032031
O           2.7795819    -2.2958321     0.3598800
C          -1.9186156    -3.0679909    -1.5943209
H          -2.8752159    -3.5550412    -1.7550121
C          -0.8954879    -3.6766899    -0.8656028
H          -1.0342080    -4.6675986    -0.4411075
C           0.3191062    -3.0244199    -0.6854334
H           1.1307240    -3.4767401    -0.1386756
C           0.4668640    -1.7409957    -1.2480987
N          -0.5088387    -1.1532089    -1.9536791
C          -1.6632798    -1.8061459    -2.1206384
H          -2.4189630    -1.2832015    -2.7051042
28
051_C13H12N2O_3-0-24-25 (180,) energy =    -687.3455634
N           1.6040299    -0.9009478    -1.1341479
C           1.6723177     0.2588226    -2.0405033
H           2.6705485     0.6869988    -1.9938833
C           2.6765340    -1.2242497    -0.3014528
H           0.9298008     1.0177928    -1.7790270
C           5.4484967     1.7699109     1.0677106
H           6.1572769     2.5048510     1.4397227
H           1.4636560    -0.0708063    -3.0596335
C           5.8947969     0.5099874     0.6608286
H           6.9512292     0.2619534     0.7159446
C           4.9844589    -0.4364856     0.1959926
H           5.3134635    -1.4302513    -0.0906756
C           3.6218759    -0.1220700     0.1005835
C           3.1790592     1.1411210     0.5177846
H           2.1210955     1.3840506     0.4792979
C           4.0885583     2.0795022     1.0054472
H           3.7340783     3.0509479     1.3390882
O           2.8657010    -2.3506096     0.1450331
C          -1.9148614    -3.0875307    -1.6261998
H          -2.8591523    -3.5942021    -1.7983077
C          -0.9585009    -3.5912765    -0.7420834
H          -1.1404108    -4.5157710    -0.2002672
C           0.2427129    -2.9192720    -0.5522116
H           1.0039133    -3.3035476     0.1074982
C           0.4493134    -1.7213414    -1.2673981
N          -0.4647676    -1.2327949    -2.1162297
C          -1.6084272    -1.9041097    -2.2878768
H          -2.3112107    -1.4616707    -2.9924767
