13
151_C3H8O2_0-5-10-8 (-165,) energy =    -269.5456702
O           1.7214086     0.1111353    -0.3475765
C           0.5251683     0.3443043     0.3636473
H          -0.2239359     0.6715358    -0.3622513
H           0.6499126     1.1294402     1.1272249
H           0.1639911    -0.5689329     0.8637714
C           2.7767933    -0.3323807     0.4807069
H           2.5268010    -1.2942126     0.9588260
H           2.9755601     0.3963773     1.2882627
O           5.0164346    -1.2910684     0.2738928
H           5.4003025    -0.7343114     0.9687779
C           4.0155738    -0.5314175    -0.3918690
H           4.3975785     0.4371073    -0.7465127
H           3.7256097    -1.1141531    -1.2710427
13
151_C3H8O2_0-5-10-8 (-150,) energy =    -269.5438805
O           1.7054692     0.0425975    -0.3519798
C           0.5134893     0.2977096     0.3585175
H          -0.2636245     0.5104686    -0.3803987
H           0.6149410     1.1656381     1.0305662
H           0.2050871    -0.5714005     0.9621202
C           2.7950321    -0.2649778     0.4957776
H           2.6030961    -1.1984640     1.0510673
H           2.9526131     0.5386847     1.2375850
O           4.9515913    -1.4054816     0.1962436
H           5.3812835    -0.9727218     0.9500644
C           4.0353098    -0.4814030    -0.3785075
H           4.5183564     0.4746168    -0.6276419
H           3.6996298    -0.9371892    -1.3144460
13
151_C3H8O2_0-5-10-8 (-135,) energy =    -269.5418500
O           1.6943146    -0.0208071    -0.3492188
C           0.5021347     0.2464461     0.3559052
H          -0.2943692     0.3528254    -0.3853326
H           0.5723937     1.1779781     0.9414890
H           0.2425984    -0.5742750     1.0444769
C           2.8099129    -0.1909930     0.5053402
H           2.6661155    -1.0722165     1.1532738
H           2.9309586     0.6905226     1.1596553
O           4.8646227    -1.5072692     0.1097550
H           5.3175672    -1.2060070     0.9122227
C           4.0537152    -0.4387616    -0.3652178
H           4.6388154     0.4830272    -0.4975597
H           3.6992358    -0.7522320    -1.3510079
13
151_C3H8O2_0-5-10-8 (-120,) energy =    -269.5407145
O           1.6893158    -0.0783154    -0.3388538
C           0.4944948     0.1805192     0.3643586
H          -0.3162416     0.1893593    -0.3689608
H           0.5238744     1.1566306     0.8766065
H           0.2869232    -0.5971130     1.1175969
C           2.8252494    -0.1111666     0.5055007
H           2.7226706    -0.9103108     1.2595714
H           2.9193916     0.8476440     1.0456443
O           4.7544474    -1.5944780     0.0191256
H           5.1926388    -1.4310477     0.8680789
C           4.0695998    -0.4044209    -0.3545629
H           4.7529885     0.4579159    -0.3584945
H           3.7285495    -0.5638903    -1.3808188
13
151_C3H8O2_0-5-10-8 (-105,) energy =    -269.5414328
O           1.5832998    -0.6991607    -0.1575863
C           1.0038128     0.5788035    -0.3152382
H           0.2537196     0.4944497    -1.1062276
H           1.7375890     1.3454081    -0.6105048
H           0.5104503     0.9143626     0.6116814
C           2.5500146    -0.7632296     0.8822574
H           2.6495936    -1.8187308     1.1561430
H           2.1762895    -0.2202941     1.7666434
O           4.8914524    -1.2724761     0.2565664
H           4.6017576    -1.7735062    -0.5223983
C           3.9408748    -0.2355364     0.4722130
H           4.3691803     0.3690520     1.2785131
H           3.8405996     0.4137212    -0.4110936
13
151_C3H8O2_0-5-10-8 (-90,) energy =    -269.5440541
O           1.6694224     0.4220938    -0.1578944
C           1.1003763     0.4977536     1.1325380
H           0.5172782     1.4218368     1.1700335
H           1.8572274     0.5298013     1.9317270
H           0.4310525    -0.3559566     1.3269241
C           2.4369796    -0.7552458    -0.3806221
H           2.4762264    -0.9088877    -1.4640846
H           1.9252154    -1.6228573     0.0692464
O           4.7799842    -0.1349496    -0.8172798
H           4.4830197     0.7629268    -1.0370231
C           3.8722025    -0.6479520     0.1494396
H           4.2509307    -1.6473504     0.3907204
H           3.8873207    -0.0573668     1.0788466
13
151_C3H8O2_0-5-10-8 (-75,) energy =    -269.5468120
O           1.7125303     0.3825109    -0.1991940
C           1.1412031     0.5454985     1.0837558
H           0.5953804     1.4926309     1.0699915
H           1.8946397     0.5873662     1.8849504
H           0.4370420    -0.2696810     1.3145077
C           2.4449143    -0.8294455    -0.3589256
H           2.4656684    -1.0419051    -1.4328303
H           1.9247382    -1.6580259     0.1502349
O           4.6892485     0.0461783    -0.7511323
H           4.2477907     0.9039889    -0.8657695
C           3.8797636    -0.7007942     0.1452849
H           4.3389206    -1.6941155     0.2057656
H           3.8910413    -0.2711691     1.1600556
13
151_C3H8O2_0-5-10-8 (-60,) energy =    -269.5485154
O           1.7516895     0.3356628    -0.2493984
C           1.1928184     0.5851347     1.0281222
H           0.6613850     1.5379271     0.9598644
H           1.9537308     0.6630395     1.8186217
H           0.4780941    -0.2032372     1.3105970
C           2.4551929    -0.9016119    -0.3478199
H           2.4622241    -1.1573323    -1.4124485
H           1.9259470    -1.6962960     0.2022332
O           4.5868687     0.2129815    -0.6315749
H           3.9893765     0.9782174    -0.6875822
C           3.8921157    -0.7510156     0.1412132
H           4.4273125    -1.7004308     0.0266471
H           3.9060654    -0.4934343     1.2138629
13
151_C3H8O2_0-5-10-8 (-45,) energy =    -269.5480800
O           1.7589075     0.2952065    -0.2962769
C           1.2457276     0.6331595     0.9834988
H           0.7110788     1.5794708     0.8686177
H           2.0371196     0.7635684     1.7356316
H           0.5431906    -0.1333337     1.3434359
C           2.4517318    -0.9516832    -0.3358710
H           2.4425582    -1.2464704    -1.3904376
H           1.9214986    -1.7189330     0.2484129
O           4.4843732     0.3619878    -0.4465289
H           3.7562645     1.0031346    -0.5287884
C           3.8982991    -0.7840935     0.1407370
H           4.4896086    -1.6604364    -0.1489298
H           3.9299823    -0.7193572     1.2425047
13
151_C3H8O2_0-5-10-8 (-30,) energy =    -269.5457344
O           1.7419979     0.2375549    -0.3535529
C           1.2961885     0.6602455     0.9297459
H           0.7279812     1.5811892     0.7773548
H           2.1330567     0.8660428     1.6114122
H           0.6401795    -0.0945073     1.3875049
C           2.4494747    -0.9993521    -0.3372642
H           2.4404294    -1.3310586    -1.3805924
H           1.9230448    -1.7504062     0.2694133
O           4.3870530     0.4781170    -0.1874864
H           3.5995798     0.9883356    -0.4494693
C           3.9036684    -0.8084297     0.1487705
H           4.5441429    -1.5755207    -0.3058182
H           3.9581514    -0.9483416     1.2408943
13
151_C3H8O2_0-5-10-8 (-15,) energy =    -269.5433003
O           1.7257882     0.2289908    -0.3701300
C           1.2911429     0.6996180     0.9015569
H           0.7227714     1.6153450     0.7200816
H           2.1382740     0.9254650     1.5618854
H           0.6364436    -0.0374603     1.3892812
C           2.4278767    -1.0063253    -0.3093161
H           2.3911230    -1.3944981    -1.3321018
H           1.9066109    -1.7211920     0.3434516
O           4.3026543     0.5461687     0.0545623
H           3.5826959     0.9987845    -0.4201707
C           3.9071040    -0.8111517     0.1409677
H           4.5584922    -1.4471285    -0.4772612
H           4.0375339    -1.1340517     1.1827518
13
151_C3H8O2_0-5-10-8 (0,) energy =    -269.5420602
O           1.7395376     0.2030210    -0.3793043
C           1.2580842     0.7070478     0.8622313
H           0.7181944     1.6306850     0.6374758
H           2.0791108     0.9255889     1.5560167
H           0.5646619    -0.0067534     1.3311586
C           2.4301537    -1.0340475    -0.2609301
H           2.3391308    -1.5116615    -1.2414942
H           1.9302149    -1.6806008     0.4742468
O           4.2664305     0.5457922     0.2272444
H           3.6227528     1.0162537    -0.3317779
C           3.9394833    -0.8264404     0.1014675
H           4.5652142    -1.3082354    -0.6666289
H           4.1787553    -1.3041079     1.0583543
13
151_C3H8O2_0-5-10-8 (15,) energy =    -269.5429736
O           2.2281134     0.4902131     0.2943853
C           0.8853121     0.6833741     0.6861200
H           0.7034639     1.7609217     0.6937885
H           0.6995012     0.2790483     1.6933213
H           0.1860843     0.2050146    -0.0170579
C           2.6179062    -0.8721789     0.2574489
H           1.9786723    -1.4395552    -0.4366692
H           2.4878756    -1.3109152     1.2603172
O           4.7553469     0.3197100    -0.1097754
H           4.0491325     0.9879216    -0.1140705
C           4.1056191    -0.9325576    -0.1904632
H           4.1504116    -1.3102120    -1.2251092
H           4.6511624    -1.6473768     0.4365907
13
151_C3H8O2_0-5-10-8 (30,) energy =    -269.5464368
O           2.2056150     0.4683103     0.1826443
C           0.8906606     0.6736797     0.6546532
H           0.6807038     1.7428787     0.5700086
H           0.7898390     0.3683862     1.7079482
H           0.1541701     0.1148293     0.0569243
C           2.6332872    -0.8815251     0.2638934
H           2.0007948    -1.5377933    -0.3542332
H           2.5486125    -1.2206944     1.3099395
O           4.7890956     0.2734298     0.0618960
H           4.1182351     0.9747651     0.0032203
C           4.1003304    -0.9296426    -0.2106977
H           4.1182414    -1.1397866    -1.2937378
H           4.6257172    -1.7501899     0.2898627
13
151_C3H8O2_0-5-10-8 (45,) energy =    -269.5497440
O           2.1759843     0.4520096     0.0847583
C           0.8892660     0.6772284     0.6218998
H           0.6416948     1.7259645     0.4387122
H           0.8651668     0.4850883     1.7060870
H           0.1319817     0.0410068     0.1381703
C           2.6460374    -0.8735537     0.2772193
H           2.0171160    -1.6021551    -0.2595985
H           2.6154644    -1.1203001     1.3515998
O           4.8210523     0.2127406     0.2121287
H           4.2080214     0.9635019     0.1354353
C           4.0861417    -0.9091141    -0.2364647
H           4.0727969    -0.9520483    -1.3388858
H           4.5900459    -1.8112680     0.1260696
13
151_C3H8O2_0-5-10-8 (60,) energy =    -269.5509989
O           2.1286688     0.4269785     0.0074913
C           0.8614836     0.6613278     0.5858211
H           0.5631866     1.6765945     0.3114703
H           0.8946569     0.5803425     1.6838118
H           0.1072743    -0.0468845     0.2080950
C           2.6506188    -0.8615139     0.2977520
H           2.0262788    -1.6491402    -0.1572891
H           2.6745089    -1.0261726     1.3873396
O           4.8742635     0.1049859     0.3326840
H           4.3604532     0.9268558     0.2616156
C           4.0641892    -0.8936422    -0.2624793
H           4.0194051    -0.7768058    -1.3576225
H           4.5306934    -1.8600075    -0.0440963
13
151_C3H8O2_0-5-10-8 (75,) energy =    -269.5497976
O           2.0736390     0.4144667    -0.0542503
C           0.8159140     0.6393615     0.5468508
H           0.4568353     1.6097364     0.1937145
H           0.8862559     0.6610737     1.6461194
H           0.0864793    -0.1361064     0.2626403
C           2.6585470    -0.8234805     0.3217857
H           2.0444748    -1.6631710    -0.0490519
H           2.7299998    -0.9096492     1.4178968
O           4.9655398    -0.0359517     0.4113446
H           4.5960099     0.8612432     0.3704664
C           4.0511696    -0.8693545    -0.2849867
H           3.9845896    -0.6082073    -1.3524125
H           4.4508574    -1.8861769    -0.2089062
13
151_C3H8O2_0-5-10-8 (90,) energy =    -269.5470934
O           2.0218047     0.4032091    -0.0992450
C           0.7658197     0.6090382     0.5107926
H           0.3479344     1.5278255     0.0905985
H           0.8540741     0.7224402     1.6033861
H           0.0736733    -0.2241747     0.3062491
C           2.6698641    -0.7755357     0.3540081
H           2.0656184    -1.6590135     0.0802856
H           2.7874578    -0.7752342     1.4495648
O           5.0626487    -0.2087274     0.4555184
H           4.8472794     0.7375263     0.4746835
C           4.0443669    -0.8484230    -0.3027875
H           3.9686484    -0.4478445    -1.3243953
H           4.3566141    -1.8955873    -0.3738382
13
151_C3H8O2_0-5-10-8 (105,) energy =    -269.5441852
O           1.9631749     0.3892160    -0.1411791
C           0.7105915     0.5767689     0.4806483
H           0.2369935     1.4384704     0.0025820
H           0.8140442     0.7778531     1.5594557
H           0.0588263    -0.3037436     0.3566977
C           2.6780471    -0.7173518     0.3860497
H           2.0904660    -1.6398005     0.2331227
H           2.8460016    -0.6104425     1.4703214
O           5.1280860    -0.3717954     0.4674750
H           5.0347778     0.5873260     0.5807123
C           4.0328470    -0.8127592    -0.3262285
H           3.9607529    -0.2700636    -1.2797016
H           4.2580676    -1.8593058    -0.5537022
13
151_C3H8O2_0-5-10-8 (120,) energy =    -269.5423718
O           1.9139183     0.3661365    -0.1834471
C           0.6619558     0.5372301     0.4439096
H           0.1394100     1.3364247    -0.0885501
H           0.7701096     0.8239840     1.5028851
H           0.0536083    -0.3809985     0.3976597
C           2.6918896    -0.6563210     0.4159718
H           2.1321474    -1.6074223     0.4027157
H           2.9079229    -0.4237974     1.4727182
O           5.1688834    -0.5432099     0.4552302
H           5.1722943     0.3988280     0.6863071
C           4.0213544    -0.7799309    -0.3515460
H           3.9754934    -0.1011772    -1.2152440
H           4.1505395    -1.7967195    -0.7333990
13
151_C3H8O2_0-5-10-8 (135,) energy =    -269.5424191
O           1.8699785     0.3352900    -0.2144995
C           0.6232145     0.4945461     0.4263935
H           0.0505198     1.2211896    -0.1560542
H           0.7381789     0.8722851     1.4557887
H           0.0614531    -0.4528048     0.4689658
C           2.7139547    -0.5884097     0.4482353
H           2.2014196    -1.5566710     0.5751475
H           2.9674361    -0.2259283     1.4606623
O           5.1847055    -0.7024116     0.4369288
H           5.2650500     0.1945371     0.7966767
C           4.0124219    -0.7349044    -0.3673164
H           4.0161747     0.0608139    -1.1267543
H           4.0440211    -1.6943993    -0.8906145
13
151_C3H8O2_0-5-10-8 (150,) energy =    -269.5439264
O           1.8337001     0.2966037    -0.2584708
C           0.5950558     0.4549547     0.3987279
H          -0.0242162     1.1003462    -0.2298638
H           0.7155413     0.9279020     1.3873041
H           0.0801434    -0.5091999     0.5389897
C           2.7368268    -0.5213818     0.4591723
H           2.2809937    -1.4940993     0.7068194
H           3.0090631    -0.0417621     1.4179964
O           5.1711159    -0.8721120     0.4068656
H           5.3299473    -0.0407060     0.8798181
C           4.0059678    -0.6938756    -0.3875545
H           4.0900397     0.1861069    -1.0429485
H           3.9380767    -1.5784043    -1.0265525
13
151_C3H8O2_0-5-10-8 (165,) energy =    -269.5456150
O           1.7922201     0.2437458    -0.2953413
C           0.5692864     0.4148554     0.3877831
H          -0.0992329     0.9655560    -0.2792570
H           0.6996618     0.9909405     1.3185943
H           0.1047248    -0.5513153     0.6426241
C           2.7553663    -0.4560425     0.4653377
H           2.3688748    -1.4307323     0.8055574
H           3.0233311     0.1200050     1.3715211
O           5.1331941    -1.0227858     0.3727996
H           5.3721521    -0.2678706     0.9323611
C           4.0031342    -0.6414360    -0.4001812
H           4.1802169     0.2915170    -0.9563744
H           3.8482433    -1.4388369    -1.1321248
13
151_C3H8O2_0-5-10-8 (180,) energy =    -269.5463414
O           1.7571736     0.1775784    -0.3244470
C           0.5496316     0.3759252     0.3785048
H          -0.1639918     0.8168315    -0.3225486
H           0.6822089     1.0610882     1.2318015
H           0.1383877    -0.5730422     0.7587797
C           2.7717946    -0.3956492     0.4733946
H           2.4561540    -1.3677555     0.8866770
H           3.0122507     0.2615885     1.3307354
O           5.0843459    -1.1623636     0.3360880
H           5.3929945    -0.5011587     0.9746851
C           4.0113915    -0.5865685    -0.3975206
H           4.2894371     0.3754382    -0.8535683
H           3.7846365    -1.2834741    -1.2092433
