17
164_C5H9NO2_0-2-12-8 (-165,) energy =    -401.1141442
N           1.4351657    -0.6785752     0.0976806
H           1.4145718     0.1491478     0.6758573
C           2.5723345    -0.9578117    -0.6085133
O           2.6804135    -1.9309000    -1.3460822
C           0.2491093    -1.5148145     0.0413355
H           0.4699772    -2.3443534    -0.6315258
H          -0.0033500    -1.9122589     1.0315657
H          -0.6120480    -0.9576977    -0.3463023
C           4.8888418    -0.0449886    -1.3630610
H           5.1381525     0.9029602    -1.8543775
H           4.7787231    -0.8419060    -2.1055359
O           5.8483612    -0.3865792    -0.3339134
C           3.7274089    -0.0005569    -0.3510209
H           3.3742622     1.0100247    -0.1218467
C           4.8053679    -0.5080616     0.6488542
H           4.6634464    -1.5465543     0.9760231
H           4.9830455     0.1287516     1.5248605
17
164_C5H9NO2_0-2-12-8 (-150,) energy =    -401.1146668
N           1.4008428    -0.6604699     0.0584617
H           1.3346602     0.2374026     0.5154258
C           2.5974543    -1.0301543    -0.4889667
O           2.7665684    -2.0931262    -1.0767791
C           0.2138942    -1.4944045    -0.0113010
H           0.4907482    -2.4074831    -0.5398796
H          -0.1471378    -1.7538155     0.9909113
H          -0.5927687    -0.9928787    -0.5590970
C           4.8195484    -0.0031948    -1.3737791
H           4.9726513     0.9641703    -1.8666679
H           4.7002977    -0.7963630    -2.1199230
O           5.8728466    -0.3010824    -0.4294707
C           3.7374564    -0.0480547    -0.2726299
H           3.3840492     0.9429720     0.0295118
C           4.9089470    -0.5628791     0.6079763
H           4.8412111    -1.6318810     0.8463772
H           5.1160879     0.0087339     1.5209485
17
164_C5H9NO2_0-2-12-8 (-135,) energy =    -401.1149125
N           1.0692421    -0.9045898     0.1201158
H           1.0605216    -0.0051388     0.5784658
C           2.2103480    -1.3045095    -0.5164956
O           2.3112469    -2.3764047    -1.1043178
C          -0.1349002    -1.7157130     0.1560369
H          -0.4174283    -1.9595877     1.1869191
H          -0.9739881    -1.2028321    -0.3289129
H           0.0805691    -2.6384483    -0.3842753
C           4.1336772    -0.0827976    -1.7715790
H           4.1513303     0.9513089    -2.1360939
H           3.8268906    -0.7620584    -2.5753670
O           5.3938139    -0.4730607    -1.1862284
C           3.3736756    -0.3297851    -0.4453111
H           3.1177227     0.5956905     0.0802083
C           4.7291411    -0.9274726     0.0106345
H           4.7161985    -2.0214523     0.0826012
H           5.1698367    -0.4950829     0.9169957
17
164_C5H9NO2_0-2-12-8 (-120,) energy =    -401.1147942
N           1.0591235    -0.8879934     0.0797085
H           1.0228424     0.0561184     0.4354974
C           2.2505194    -1.3651949    -0.3899345
O           2.3917951    -2.5001232    -0.8331420
C          -0.1546893    -1.6852302     0.0963170
H          -0.5327964    -1.8108551     1.1177481
H          -0.9389960    -1.2264149    -0.5173687
H           0.0954613    -2.6637575    -0.3156115
C           4.0466112    -0.0490938    -1.7375566
H           4.0070925     0.9995652    -2.0562520
H           3.6964435    -0.6998146    -2.5483812
O           5.3566774    -0.4270276    -1.2700846
C           3.4021203    -0.3741402    -0.3640665
H           3.1680779     0.5251491     0.2147250
C           4.7988225    -0.9532306    -0.0449274
H           4.8121923    -2.0487322    -0.0254905
H           5.3023182    -0.5504995     0.8418834
17
164_C5H9NO2_0-2-12-8 (-105,) energy =    -401.1143801
N           1.4436376    -1.0009029    -0.1095184
H           1.3094457    -0.0313028     0.1384383
C           2.7182614    -1.4570644    -0.3003594
O           2.9784027    -2.6211796    -0.5841338
C           0.2761735    -1.8572701    -0.2234540
H          -0.2681230    -1.9166726     0.7266018
H          -0.4069226    -1.4938900    -1.0002620
H           0.6303118    -2.8525937    -0.4947287
C           4.4187102     0.0704243    -1.5504244
H           4.3139476     1.1356348    -1.7910587
H           4.1081302    -0.5337198    -2.4129197
O           5.7480633    -0.2613278    -1.1083682
C           3.7984119    -0.3908098    -0.2027456
H           3.4874358     0.4498966     0.4260793
C           5.2293005    -0.8818090     0.0928162
H           5.3193144    -1.9728636     0.0640964
H           5.7041316    -0.4827547     0.9967236
17
164_C5H9NO2_0-2-12-8 (-90,) energy =    -401.1138057
N           1.4301263    -0.8936584    -0.1186142
H           1.3689170     0.1137232    -0.0786990
C           2.6605013    -1.4793056     0.0003742
O           2.8276752    -2.6933111    -0.0070257
C           0.2035566    -1.6585504    -0.2602475
H          -0.4734343    -1.4875959     0.5853813
H          -0.3185725    -1.4003575    -1.1890529
H           0.4813147    -2.7129305    -0.2865500
C           4.4586240    -0.0802231    -1.2800165
H           4.4491287     0.9928822    -1.5099871
H           4.0839175    -0.6400314    -2.1476373
O           5.7564833    -0.5365048    -0.8584976
C           3.8177662    -0.4922151     0.0748153
H           3.5599674     0.3702413     0.6987276
C           5.2090939    -1.0791994     0.3696076
H           5.2188072    -2.1738596     0.3791894
H           5.7246103    -0.6865502     1.2537394
17
164_C5H9NO2_0-2-12-8 (-75,) energy =    -401.1133216
N           1.4676274    -0.8983860    -0.1864876
H           1.4375738     0.1004624    -0.3347072
C           2.6694289    -1.4759374     0.1192687
O           2.8011654    -2.6747925     0.3337117
C           0.2307722    -1.6536059    -0.2863995
H          -0.4955202    -1.3332296     0.4703270
H          -0.2207565    -1.5430421    -1.2792224
H           0.4780231    -2.7028138    -0.1202916
C           4.3778992    -0.0114595    -1.2333787
H           4.4050930     1.0767414    -1.3778768
H           3.9018824    -0.4776566    -2.1069335
O           5.6823194    -0.5566828    -0.9673971
C           3.8396615    -0.4986789     0.1402952
H           3.6296353     0.3226226     0.8343083
C           5.2397746    -1.1140041     0.2969815
H           5.2378152    -2.2084371     0.2934101
H           5.8387132    -0.7414531     1.1361941
17
164_C5H9NO2_0-2-12-8 (-60,) energy =    -401.1130129
N           1.5082038    -0.9264685    -0.2780720
H           1.5124788     0.0280664    -0.6087194
C           2.6710496    -1.4549668     0.2107796
O           2.7597126    -2.5971942     0.6445379
C           0.2596525    -1.6679615    -0.3159000
H          -0.5003048    -1.2046507     0.3249386
H          -0.1306612    -1.7319850    -1.3382182
H           0.4696013    -2.6733898     0.0510505
C           4.3247052     0.0709598    -1.1839608
H           4.3754644     1.1654619    -1.2577796
H           3.7857400    -0.3222146    -2.0574554
O           5.6271452    -0.5224163    -1.0364458
C           3.8581010    -0.4985855     0.1823247
H           3.7118496     0.2748107     0.9447938
C           5.2508139    -1.1507697     0.2161036
H           5.2281416    -2.2431457     0.1484385
H           5.9087188    -0.8440903     1.0374023
17
164_C5H9NO2_0-2-12-8 (-45,) energy =    -401.1127493
N           1.5405007    -0.9759947    -0.3604147
H           1.5841819    -0.0894043    -0.8417629
C           2.6531789    -1.4214668     0.2964794
O           2.6893861    -2.4733378     0.9240929
C           0.2776963    -1.6939444    -0.3429972
H          -0.5048420    -1.1146964     0.1620220
H          -0.0560715    -1.9283914    -1.3603167
H           0.4419069    -2.6232355     0.2039295
C           4.2851627     0.1439107    -1.1234718
H           4.3744746     1.2381229    -1.1266863
H           3.6962096    -0.1697514    -1.9975217
O           5.5707871    -0.5029395    -1.0815938
C           3.8649311    -0.5016453     0.2213179
H           3.7952600     0.2204517     1.0426973
C           5.2335040    -1.2041075     0.1422129
H           5.1723486    -2.2887265     0.0027250
H           5.9409860    -0.9786431     0.9482310
17
164_C5H9NO2_0-2-12-8 (-30,) energy =    -401.1122463
N           1.5786156    -1.0239855    -0.4164464
H           1.6594445    -0.2252769    -1.0279482
C           2.6375066    -1.3565794     0.3789441
O           2.6191949    -2.2931233     1.1698494
C           0.3103869    -1.7305365    -0.3648911
H          -0.4961308    -1.0786899    -0.0078586
H           0.0387133    -2.1221149    -1.3518272
H           0.4314145    -2.5616146     0.3310619
C           4.2632023     0.2244980    -1.0714518
H           4.4025384     1.3114137    -1.0100851
H           3.6279372    -0.0031128    -1.9404204
O           5.5181824    -0.4795086    -1.1358147
C           3.8790856    -0.4850756     0.2494500
H           3.8983367     0.1844562     1.1159433
C           5.2086552    -1.2447426     0.0550635
H           5.0939939    -2.3147964    -0.1522170
H           5.9631233    -1.1057489     0.8374372
17
164_C5H9NO2_0-2-12-8 (-15,) energy =    -401.1116107
N           1.5912795    -1.0695427    -0.4585907
H           1.7217979    -0.3759909    -1.1793241
C           2.5908790    -1.2775395     0.4468688
O           2.5088114    -2.0806217     1.3700949
C           0.3186953    -1.7667709    -0.3895521
H          -0.5068012    -1.0726911    -0.1906348
H           0.1138400    -2.3021579    -1.3237046
H           0.3865700    -2.4840411     0.4293204
C           4.2344803     0.2967086    -1.0280587
H           4.3863319     1.3779570    -0.9230777
H           3.5850385     0.1166357    -1.8987714
O           5.4795811    -0.4182440    -1.1507952
C           3.8678891    -0.4703916     0.2640171
H           3.9845840     0.1459806     1.1604407
C           5.1461540    -1.2858967    -0.0409218
H           4.9596146    -2.3179001    -0.3634386
H           5.9221456    -1.2829095     0.7318966
17
164_C5H9NO2_0-2-12-8 (0,) energy =    -401.1110566
N           1.5126120    -1.1383789    -0.3648184
H           1.7106295    -0.5510547    -1.1603305
C           2.4364142    -1.2346053     0.6346505
O           2.2646849    -1.9049253     1.6474522
C           0.2275184    -1.8130446    -0.3054562
H          -0.5995414    -1.0930757    -0.3002492
H           0.0998625    -2.4923213    -1.1563515
H           0.2061816    -2.3889190     0.6205234
C           4.1281795     0.3355701    -0.8073093
H           4.3545993     1.3926061    -0.6221960
H           3.4405779     0.2772729    -1.6655786
O           5.3169627    -0.4449883    -1.0385566
C           3.7575303    -0.5040912     0.4373323
H           3.9606680     0.0269005     1.3704527
C           4.9611185    -1.3803101     0.0056172
H           4.6868956    -2.3633556    -0.3990524
H           5.7617792    -1.5025884     0.7427468
17
164_C5H9NO2_0-2-12-8 (15,) energy =    -401.1121439
N           1.6328234    -1.0821674    -0.4077621
H           2.0843564    -0.9217985    -1.2992175
C           2.4365514    -1.1191996     0.7012352
O           2.0790901    -1.5968953     1.7712265
C           0.3529048    -1.7742729    -0.4219802
H          -0.3182561    -1.2877380    -1.1354749
H           0.4536531    -2.8342440    -0.6916999
H          -0.0751445    -1.7161718     0.5794808
C           4.1059619     0.4007053    -0.6697656
H           4.8774412     1.1572637    -0.4681092
H           3.2564090     0.8823944    -1.1663791
O           4.6381657    -0.7106625    -1.4283554
C           3.8260416    -0.5057003     0.5472551
H           4.1513810    -0.1577554     1.5282875
C           4.7844938    -1.4741239    -0.2050606
H           4.4661323    -2.5151753    -0.3244240
H           5.8172501    -1.4458638     0.1680210
17
164_C5H9NO2_0-2-12-8 (30,) energy =    -401.1141954
N           1.9953433    -1.2391838    -0.3277666
H           2.7379923    -1.7194734     0.1666143
C           2.2795310    -0.0022570    -0.8413646
O           1.4250295     0.7634803    -1.2709041
C           0.6274421    -1.6869928    -0.1278292
H          -0.0081051    -1.1425341    -0.8273582
H           0.5521942    -2.7608192    -0.3253654
H           0.2711031    -1.4886774     0.8919528
C           4.7646968    -0.7974725    -1.0068225
H           5.7007222    -0.5002010    -1.4993909
H           4.4040665    -1.7350813    -1.4420636
O           4.9302854    -0.8838144     0.4319266
C           3.7616350     0.3677130    -0.8583511
H           3.8877204     1.2382658    -1.5024384
C           4.3637759     0.4452734     0.5711411
H           3.6710076     0.5136517     1.4164164
H           5.1485973     1.2066373     0.6743016
17
164_C5H9NO2_0-2-12-8 (45,) energy =    -401.1151187
N           1.9389808    -1.0557765    -0.1969438
H           2.6688368    -1.5362534     0.3157380
C           2.2820939     0.0696649    -0.8943241
O           1.4822704     0.7466903    -1.5294130
C           0.5760733    -1.5500488    -0.1274618
H          -0.0366041    -0.9088342    -0.7626736
H           0.5122968    -2.5829637    -0.4893122
H           0.1884547    -1.5127109     0.8980448
C           4.7349423    -0.7557455    -1.0293472
H           5.6815641    -0.4694163    -1.5070969
H           4.3435348    -1.6629659    -1.5008088
O           4.8928547    -0.9072187     0.4068685
C           3.7650522     0.4324971    -0.8275378
H           3.9227750     1.3224534    -1.4372605
C           4.3593000     0.4299608     0.6018586
H           3.6640674     0.4787808     1.4461922
H           5.1635921     1.1646319     0.7417077
17
164_C5H9NO2_0-2-12-8 (60,) energy =    -401.1145448
N           1.9203091    -0.9872819    -0.0212015
H           2.6599729    -1.4377223     0.5045320
C           2.2806935    -0.0060625    -0.9048143
O           1.5084224     0.4963865    -1.7123362
C           0.6039728    -1.6012092    -0.0432082
H          -0.0665027    -0.9275241    -0.5783318
H           0.6106462    -2.5708123    -0.5584680
H           0.2358951    -1.7474297     0.9775427
C           4.7458817    -0.7093915    -1.0696041
H           5.6632415    -0.3824905    -1.5770294
H           4.3696708    -1.6233968    -1.5409562
O           4.9586880    -0.8763063     0.3580879
C           3.7384008     0.4393874    -0.8092643
H           3.8507264     1.3430623    -1.4092417
C           4.3745236     0.4318999     0.5968534
H           3.7064014     0.4379073     1.4641737
H           5.1504968     1.1988575     0.7251665
17
164_C5H9NO2_0-2-12-8 (75,) energy =    -401.1127505
N           1.8911537    -0.8487437     0.0849855
H           2.5923217    -1.2786293     0.6750310
C           2.3329941    -0.0174552    -0.9101168
O           1.6300648     0.3392528    -1.8476802
C           0.5916897    -1.4967324    -0.0003672
H          -0.0887214    -0.8225421    -0.5220543
H           0.6325378    -2.4428414    -0.5568236
H           0.2117968    -1.6927524     1.0064541
C           4.8062180    -0.6350844    -1.1380058
H           5.6828564    -0.2576022    -1.6809317
H           4.4345191    -1.5423271    -1.6261702
O           5.0990151    -0.8494480     0.2683791
C           3.7742592     0.4669465    -0.7795806
H           3.8540735     1.4007610    -1.3382447
C           4.4601813     0.4103497     0.5984658
H           3.8276581     0.3399852     1.4901163
H           5.1987469     1.2107852     0.7439849
17
164_C5H9NO2_0-2-12-8 (90,) energy =    -401.1110143
N           1.6306894    -1.0251085    -0.0071119
H           2.2677978    -1.2134027     0.7524710
C           2.0816641    -0.3181476    -1.0851126
O           1.4309499    -0.1815090    -2.1153465
C           0.3778319    -1.7612038    -0.0428164
H          -0.2276513    -1.3431573    -0.8477522
H           0.5351957    -2.8293751    -0.2415464
H          -0.1516559    -1.6521465     0.9090591
C           4.6132402    -0.6176330    -1.4698586
H           5.3035472    -0.1440697    -2.1792656
H           4.3172239    -1.6005527    -1.8539416
O           5.1746235    -0.6986021    -0.1383991
C           3.4676128     0.3095549    -0.9784509
H           3.4115144     1.2683356    -1.4970549
C           4.2726627     0.3216936     0.3388759
H           3.7621550     0.0282806     1.2659896
H           4.7887109     1.2734080     0.5255204
17
164_C5H9NO2_0-2-12-8 (105,) energy =    -401.1111699
N           1.7270840    -1.0656968     0.1387203
H           2.1862447    -1.0448003     1.0363317
C           2.3059244    -0.4239336    -0.9169074
O           1.8017704    -0.3755153    -2.0340990
C           0.4420253    -1.7349288     0.0339442
H           0.1103072    -1.6391753    -1.0006221
H           0.5295552    -2.7976680     0.2882959
H          -0.3015064    -1.2730178     0.6943543
C           4.8746181    -0.5377253    -1.2934007
H           5.3985280    -0.0339908    -2.1128378
H           4.6632050    -1.5753472    -1.5822333
O           5.6047308    -0.4585867    -0.0481220
C           3.6662517     0.2190116    -0.6840964
H           3.5980603     1.2446176    -1.0551199
C           4.4731748     0.1159399     0.6322925
H           4.0805871    -0.5692956     1.3996431
H           4.7202003     1.0680995     1.1176814
17
164_C5H9NO2_0-2-12-8 (120,) energy =    -401.1117963
N           1.7006418    -1.0291959     0.2155714
H           2.0701881    -0.9005663     1.1453320
C           2.3954131    -0.5283454    -0.8468659
O           2.0080421    -0.6146402    -2.0071988
C           0.4147040    -1.6882159     0.0660110
H           0.2046423    -1.7492261    -1.0025340
H           0.4408704    -2.6994021     0.4880146
H          -0.3847351    -1.1200202     0.5566952
C           4.9584938    -0.4811215    -1.2191286
H           5.4917564     0.1469057    -1.9413543
H           4.7768430    -1.4674868    -1.6624604
O           5.6576078    -0.5663512     0.0448282
C           3.7210042     0.1565641    -0.5435557
H           3.6048374     1.2148112    -0.7958921
C           4.5150713    -0.0698254     0.7662396
H           4.1142079    -0.8313928     1.4523008
H           4.7514838     0.8318272     1.3452474
17
164_C5H9NO2_0-2-12-8 (135,) energy =    -401.1124531
N           1.6621922    -0.9606498     0.2215899
H           1.9636701    -0.6907654     1.1462629
C           2.4459062    -0.6325861    -0.8479392
O           2.1535013    -0.9042977    -2.0069278
C           0.3846364    -1.6373127     0.0788278
H           0.2558129    -1.8647511    -0.9801151
H           0.3676708    -2.5705514     0.6533375
H          -0.4441132    -1.0009305     0.4120317
C           4.9905667    -0.3787919    -1.2590970
H           5.4905771     0.3430917    -1.9146268
H           4.8528065    -1.3232316    -1.7972146
O           5.6992794    -0.5509305    -0.0073451
C           3.7279020     0.1247599    -0.5282116
H           3.5359835     1.1912470    -0.6874464
C           4.5428192    -0.1646448     0.7574974
H           4.1709664    -0.9937117     1.3776342
H           4.7457542     0.6988942     1.4040440
17
164_C5H9NO2_0-2-12-8 (150,) energy =    -401.1128750
N           1.6222082    -0.8828438     0.2144601
H           1.8491667    -0.4586921     1.1024979
C           2.4964610    -0.7329888    -0.8258807
O           2.3027537    -1.2029526    -1.9406674
C           0.3642564    -1.5984358     0.0888957
H           0.3196058    -1.9979062    -0.9250544
H           0.3079382    -2.4263945     0.8050249
H          -0.4921061    -0.9323465     0.2494314
C           5.0066148    -0.2806115    -1.2956558
H           5.4581284     0.5203437    -1.8922086
H           4.8995892    -1.1802510    -1.9105774
O           5.7495926    -0.5249098    -0.0744061
C           3.7376922     0.0916861    -0.5066026
H           3.4766740     1.1540922    -0.5687884
C           4.5932003    -0.2581957     0.7392217
H           4.2643672    -1.1485353     1.2941341
H           4.7687553     0.5608490     1.4492055
17
164_C5H9NO2_0-2-12-8 (165,) energy =    -401.1131447
N           1.5525401    -0.7976053     0.1867845
H           1.6950627    -0.2113447     0.9971179
C           2.5172759    -0.8181791    -0.7827417
O           2.4269337    -1.4877430    -1.8045351
C           0.3224099    -1.5644366     0.0928555
H           0.3692338    -2.1384865    -0.8333489
H           0.2204508    -2.2542186     0.9387918
H          -0.5558442    -0.9083002     0.0633000
C           4.9784049    -0.1924411    -1.3348445
H           5.3707270     0.6714060    -1.8839296
H           4.8811153    -1.0492717    -2.0089555
O           5.7803673    -0.4938370    -0.1643719
C           3.7262469     0.0599179    -0.4777996
H           3.4174145     1.1101609    -0.4344217
C           4.6429336    -0.3573959     0.7051534
H           4.3700567    -1.3071540     1.1858982
H           4.8038574     0.4031768     1.4807586
17
164_C5H9NO2_0-2-12-8 (180,) energy =    -401.1135707
N           1.4897052    -0.7254261     0.1459238
H           1.5415527     0.0036951     0.8431445
C           2.5447357    -0.8903337    -0.7090159
O           2.5612118    -1.7343485    -1.5969564
C           0.2886614    -1.5397328     0.0823174
H           0.4311419    -2.2639798    -0.7206437
H           0.1227472    -2.0752555     1.0245185
H          -0.5954447    -0.9296727    -0.1383435
C           4.9405392    -0.1079473    -1.3565446
H           5.2637575     0.8044170    -1.8713249
H           4.8423235    -0.9308503    -2.0714839
O           5.8168320    -0.4401954    -0.2503138
C           3.7236451     0.0331321    -0.4253873
H           3.3842417     1.0643955    -0.2819882
C           4.7162419    -0.4391853     0.6748346
H           4.5094220    -1.4404303     1.0768259
H           4.8745287     0.2574765     1.5084763
