18
401_C7H9NO_0-5-6-9 (-165,) energy =    -402.1181088
N           0.6932444     0.4796307    -0.9680356
C          -0.5105424     1.0021080    -0.7106575
H          -0.8342338     1.8004225    -1.3771816
C          -1.3339625     0.5746701     0.3318794
H          -2.3056928     1.0331764     0.4893910
C           1.1295552    -0.5055835    -0.1684961
C           2.5086205    -1.0325782    -0.4980249
H           3.2662743    -0.2888073    -0.1915546
H           2.5961697    -1.1394923    -1.5911693
O           2.7301843    -2.2643307     0.1566694
C           4.0266499    -2.7742036    -0.0692694
H           4.1011113    -3.7184584     0.4762093
H           4.8048640    -2.0852826     0.2972100
H           4.2087169    -2.9633347    -1.1392547
C          -0.8722846    -0.4533921     1.1525806
H          -1.4799948    -0.8214864     1.9753123
C           0.3829833    -1.0052364     0.9026255
H           0.7860037    -1.8082138     1.5084487
18
401_C7H9NO_0-5-6-9 (-150,) energy =    -402.1175621
N           0.6654280     0.4160338    -1.0188989
C          -0.5540384     0.9153106    -0.7836842
H          -0.9160699     1.6442223    -1.5073973
C          -1.3473320     0.5432075     0.3013812
H          -2.3337933     0.9767809     0.4365152
C           1.1495974    -0.4826548    -0.1492197
C           2.5448170    -0.9894389    -0.4389188
H           3.2887087    -0.3304246     0.0460548
H           2.7228928    -0.9306088    -1.5233438
O           2.6829767    -2.3145166     0.0375273
C           3.9886937    -2.8204153    -0.1408644
H           3.9969240    -3.8379215     0.2583899
H           4.7373459    -2.2168766     0.3979259
H           4.2714704    -2.8512159    -1.2051790
C          -0.8385540    -0.4005579     1.1938568
H          -1.4231986    -0.7252092     2.0508212
C           0.4326698    -0.9228906     0.9689898
H           0.8694731    -1.6651725     1.6275395
18
401_C7H9NO_0-5-6-9 (-135,) energy =    -402.1167643
N           0.6488110     0.3479488    -1.0491703
C          -0.5895603     0.8168255    -0.8471205
H          -0.9825951     1.4684294    -1.6261399
C          -1.3633765     0.5045275     0.2696114
H          -2.3655499     0.9092528     0.3756356
C           1.1720427    -0.4545158    -0.1114909
C           2.5792641    -0.9485083    -0.3598526
H           3.2939200    -0.3979221     0.2795048
H           2.8445467    -0.7389093    -1.4063243
O           2.6463574    -2.3355088    -0.0749814
C           3.9507621    -2.8540408    -0.2263563
H           3.9033858    -3.9189711     0.0157010
H           4.6672415    -2.3628116     0.4525177
H           4.3185680    -2.7376911    -1.2583117
C          -0.8155087    -0.3430701     1.2336353
H          -1.3845173    -0.6190747     2.1176553
C           0.4739656    -0.8305480     1.0428716
H           0.9387099    -1.5020100     1.7572024
18
401_C7H9NO_0-5-6-9 (-120,) energy =    -402.1159090
N           0.6421418     0.2681483    -1.0681100
C          -0.6146524     0.7050207    -0.9115248
H          -1.0280312     1.2714995    -1.7446353
C          -1.3820005     0.4636420     0.2269430
H          -2.3984647     0.8399078     0.2949414
C           1.1903799    -0.4284483    -0.0625654
C           2.6067094    -0.9158222    -0.2645170
H           3.2752626    -0.4876101     0.5041963
H           2.9590663    -0.5726595    -1.2477843
O           2.6198330    -2.3328477    -0.1786830
C           3.9169045    -2.8674372    -0.3374935
H           3.8294406    -3.9536892    -0.2513699
H           4.6085810    -2.5005100     0.4389946
H           4.3428816    -2.6195378    -1.3229093
C          -0.8084962    -0.2731514     1.2644402
H          -1.3711361    -0.4892970     2.1688703
C           0.4990669    -0.7261031     1.1188481
H           0.9834035    -1.3113595     1.8944169
18
401_C7H9NO_0-5-6-9 (-105,) energy =    -402.1151413
N           0.6504395     0.1661124    -1.0704359
C          -0.6174302     0.5825047    -0.9621918
H          -1.0379963     1.0603170    -1.8457747
C          -1.3873050     0.4299094     0.1907324
H          -2.4123812     0.7874897     0.2187367
C           1.2079856    -0.4227850    -0.0022036
C           2.6280124    -0.9138441    -0.1609996
H           3.2394093    -0.6218375     0.7109586
H           3.0641785    -0.4499361    -1.0574320
O           2.6043605    -2.3288783    -0.2833593
C           3.8963432    -2.8726576    -0.4509496
H           3.7803709    -3.9566120    -0.5326578
H           4.5506580    -2.6460084     0.4073844
H           4.3834259    -2.4946800    -1.3642515
C          -0.8039454    -0.1903244     1.2957862
H          -1.3664832    -0.3318874     2.2148622
C           0.5154161    -0.6235300     1.1982052
H           1.0076524    -1.1162633     2.0315790
18
401_C7H9NO_0-5-6-9 (-90,) energy =    -402.1145410
N           0.6617830     0.0338534    -1.0613775
C          -0.6093486     0.4448531    -1.0024614
H          -1.0285568     0.8283355    -1.9316137
C          -1.3854158     0.4043028     0.1572844
H          -2.4132388     0.7547442     0.1435636
C           1.2182362    -0.4417268     0.0637556
C           2.6396115    -0.9407071    -0.0494301
H           3.1808043    -0.7890397     0.9003883
H           3.1568639    -0.3700770    -0.8351421
O           2.6056569    -2.3215946    -0.3784360
C           3.8971205    -2.8562032    -0.5751372
H           3.7722032    -3.9135078    -0.8232388
H           4.5185732    -2.7728412     0.3322031
H           4.4253019    -2.3539131    -1.4016677
C          -0.8029962    -0.0919447     1.3222678
H          -1.3678421    -0.1421509     2.2494023
C           0.5211658    -0.5230801     1.2742638
H           1.0119030    -0.9211255     2.1578028
18
401_C7H9NO_0-5-6-9 (-75,) energy =    -402.1140175
N           0.6519920    -0.1139764    -1.0485847
C          -0.6130165     0.3147495    -1.0274236
H          -1.0333240     0.6062787    -1.9890432
C          -1.3839146     0.4048350     0.1342410
H          -2.4072493     0.7654806     0.0881676
C           1.2083258    -0.4817509     0.1171438
C           2.6276614    -0.9948792     0.0427693
H           3.0920805    -0.9921793     1.0436189
H           3.2175433    -0.3286924    -0.6067707
O           2.6085913    -2.3077159    -0.4921340
C           3.9068112    -2.8257999    -0.6855864
H           3.7922604    -3.8293606    -1.1035830
H           4.4677320    -2.8952184     0.2615381
H           4.4913665    -2.2094904    -1.3878555
C          -0.8014119     0.0244665     1.3407978
H          -1.3613867     0.0772373     2.2707492
C           0.5169266    -0.4301414     1.3315317
H           1.0048484    -0.7443691     2.2497411
18
401_C7H9NO_0-5-6-9 (-60,) energy =    -402.1132845
N           0.6230253    -0.2724530    -1.0340108
C          -0.6291892     0.1911615    -1.0402889
H          -1.0563237     0.3953428    -2.0213255
C          -1.3800931     0.4212214     0.1155138
H          -2.3939399     0.8040858     0.0454420
C           1.1858846    -0.5392451     0.1554646
C           2.6009367    -1.0722305     0.1199579
H           2.9782535    -1.2214311     1.1460434
H           3.2546644    -0.3280716    -0.3670972
O           2.6258164    -2.2852068    -0.6067104
C           3.9354089    -2.7803772    -0.7789393
H           3.8545047    -3.7057391    -1.3551184
H           4.4230554    -3.0017801     0.1853047
H           4.5709730    -2.0687252    -1.3309558
C          -0.7900064     0.1468921     1.3465041
H          -1.3342913     0.3070349     2.2734853
C           0.5141051    -0.3476262     1.3668393
H           1.0038918    -0.5872489     2.3064143
18
401_C7H9NO_0-5-6-9 (-45,) energy =    -402.1123432
N           0.5618855    -0.4243751    -1.0162944
C          -0.6761998     0.0777851    -1.0299543
H          -1.1261686     0.2036196    -2.0140024
C          -1.3845198     0.4376627     0.1186010
H          -2.3881977     0.8452655     0.0421242
C           1.1514879    -0.6015077     0.1751113
C           2.5616980    -1.1544374     0.1671168
H           2.8502082    -1.4601676     1.1877617
H           3.2606381    -0.3528920    -0.1360725
O           2.6542301    -2.2373403    -0.7310733
C           3.9713120    -2.7280543    -0.8454136
H           3.9440252    -3.5528506    -1.5620850
H           4.3570237    -3.1040244     0.1171455
H           4.6645012    -1.9546268    -1.2153709
C          -0.7656210     0.2552248     1.3531826
H          -1.2766346     0.5141700     2.2768054
C           0.5210088    -0.2805491     1.3826795
H           1.0289660    -0.4541322     2.3273825
18
401_C7H9NO_0-5-6-9 (-30,) energy =    -402.1114225
N           0.5041579    -0.5573942    -1.0023807
C          -0.7196953    -0.0174228    -1.0229721
H          -1.1967990     0.0382098    -2.0006496
C          -1.3801678     0.4597048     0.1093215
H          -2.3733594     0.8912626     0.0278549
C           1.1243969    -0.6526824     0.1801771
C           2.5253499    -1.2342421     0.1996756
H           2.7175850    -1.6966698     1.1843163
H           3.2565353    -0.4097857     0.0946106
O           2.6963067    -2.1662488    -0.8389330
C           4.0104907    -2.6742630    -0.8913190
H           4.0481616    -3.3768371    -1.7276584
H           4.2847087    -3.2064285     0.0351309
H           4.7512544    -1.8753068    -1.0609391
C          -0.7280316     0.3595774     1.3376909
H          -1.2026416     0.7104908     2.2503184
C           0.5409515    -0.2124433     1.3756865
H           1.0725802    -0.3232407     2.3173187
18
401_C7H9NO_0-5-6-9 (-15,) energy =    -402.1107802
N           0.4449089    -0.6693762    -0.9772808
C          -0.7694014    -0.1046635    -1.0004330
H          -1.2762471    -0.1123238    -1.9645438
C          -1.3832735     0.4684768     0.1117271
H          -2.3703883     0.9135638     0.0296093
C           1.1010024    -0.6872529     0.1870980
C           2.4890589    -1.3018351     0.2260723
H           2.5874522    -1.9153277     1.1405596
H           3.2365431    -0.4903272     0.3193769
O           2.7405559    -2.0676044    -0.9224438
C           4.0381692    -2.6190186    -0.9231151
H           4.1430372    -3.1872821    -1.8507442
H           4.1982180    -3.2971667    -0.0681117
H           4.8155630    -1.8374806    -0.8920268
C          -0.6922855     0.4467633     1.3240998
H          -1.1294474     0.8757959     2.2219501
C           0.5663911    -0.1440189     1.3645562
H           1.1299238    -0.1890343     2.2934833
18
401_C7H9NO_0-5-6-9 (0,) energy =    -402.1105478
N           1.2263994     0.4131186     0.3675281
C           0.1647561     1.2038539     0.5759833
H           0.3897963     2.2390983     0.8289778
C          -1.1569744     0.7731243     0.4857896
H          -1.9764703     1.4624376     0.6660761
C           0.9974987    -0.8650851     0.0546474
C           2.1856918    -1.7804855    -0.1861973
H           2.1055512    -2.2117332    -1.2021499
H           2.1267279    -2.6356921     0.5136135
O           3.3997222    -1.0962311    -0.0322432
C           4.5144185    -1.9298598    -0.2567595
H           5.4065594    -1.3140931    -0.1178276
H           4.5197246    -2.3421925    -1.2796301
H           4.5470207    -2.7727599     0.4537260
C          -1.3884327    -0.5642430     0.1582932
H          -2.4011934    -0.9499586     0.0754436
C          -0.2961606    -1.3962435    -0.0606340
H          -0.4372658    -2.4436065    -0.3175575
18
401_C7H9NO_0-5-6-9 (15,) energy =    -402.1107802
N           1.2260552     0.4373947     0.2544291
C           0.1664542     1.2244809     0.4818623
H           0.3886887     2.2741879     0.6694419
C          -1.1521797     0.7734753     0.4868462
H          -1.9706331     1.4616342     0.6760971
C           1.0000504    -0.8598473     0.0249970
C           2.1880431    -1.7620995    -0.2588077
H           2.1896633    -2.0226776    -1.3349484
H           2.0571415    -2.7148053     0.2866822
O           3.3958881    -1.1420094     0.0952267
C           4.5152646    -1.9493318    -0.1930178
H           5.4016451    -1.3852135     0.1078412
H           4.5867388    -2.1818758    -1.2686218
H           4.4911036    -2.9012712     0.3635424
C          -1.3808279    -0.5820668     0.2460166
H          -2.3903894    -0.9846765     0.2442816
C          -0.2889505    -1.4127739     0.0165262
H          -0.4275047    -2.4760842    -0.1642411
18
401_C7H9NO_0-5-6-9 (30,) energy =    -402.1114225
N           1.2197700     0.4549703     0.1264012
C           0.1654696     1.2385091     0.3797544
H           0.3829298     2.2993944     0.4971467
C          -1.1442983     0.7716589     0.4920723
H          -1.9599662     1.4589820     0.6960315
C           1.0005956    -0.8577490    -0.0174943
C           2.1907279    -1.7422465    -0.3377361
H           2.2868189    -1.8285411    -1.4371469
H           2.0015163    -2.7633346     0.0389311
O           3.3720112    -1.2118310     0.2098450
C           4.5085088    -1.9745949    -0.1285040
H           5.3705826    -1.4839948     0.3304412
H           4.6607316    -2.0194413    -1.2196684
H           4.4407480    -3.0077075     0.2520213
C          -1.3661712    -0.5964146     0.3391561
H          -2.3670163    -1.0116342     0.4240022
C          -0.2761014    -1.4256428     0.0880535
H          -0.4078776    -2.4992677    -0.0193489
18
401_C7H9NO_0-5-6-9 (45,) energy =    -402.1123429
N           1.2005405     0.4712751    -0.0200076
C           0.1543115     1.2502803     0.2690955
H           0.3571716     2.3197392     0.3113072
C          -1.1356396     0.7689503     0.5035438
H          -1.9471614     1.4540783     0.7302248
C           0.9972231    -0.8531688    -0.0766691
C           2.1914190    -1.7176275    -0.4247156
H           2.3923487    -1.6340772    -1.5088073
H           1.9576428    -2.7777161    -0.2241600
O           3.3226269    -1.3015709     0.3068779
C           4.4878107    -2.0062063    -0.0597333
H           5.3059695    -1.6084311     0.5461283
H           4.7307540    -1.8664918    -1.1260122
H           4.3941530    -3.0882216     0.1330933
C          -1.3421344    -0.6070892     0.4389093
H          -2.3258558    -1.0327290     0.6189046
C          -0.2560733    -1.4325176     0.1514625
H          -0.3746322    -2.5117909     0.1100826
18
401_C7H9NO_0-5-6-9 (60,) energy =    -402.1132846
N           1.1642874     0.4909929    -0.1772647
C           0.1238119     1.2585619     0.1562682
H           0.2956795     2.3337296     0.1239107
C          -1.1275222     0.7570550     0.5241611
H          -1.9372270     1.4336248     0.7810902
C           0.9948592    -0.8406677    -0.1480301
C           2.1993455    -1.6757028    -0.5217244
H           2.5031153    -1.4295458    -1.5539511
H           1.9414224    -2.7482973    -0.5006128
O           3.2583683    -1.3953011     0.3727174
C           4.4525954    -2.0545241     0.0133118
H           5.2088684    -1.7709395     0.7498298
H           4.7981941    -1.7539813    -0.9893609
H           4.3377894    -3.1514660     0.0238408
C          -1.2990438    -0.6245120     0.5486081
H          -2.2527641    -1.0627784     0.8306174
C          -0.2170767    -1.4380571     0.2121811
H          -0.3070983    -2.5204531     0.2327685
18
401_C7H9NO_0-5-6-9 (75,) energy =    -402.1140168
N           1.1083339     0.5277701    -0.3239563
C           0.0622267     1.2703916     0.0481751
H           0.1830578     2.3475909    -0.0585490
C          -1.1323914     0.7399296     0.5416645
H          -1.9505602     1.3958369     0.8241633
C           1.0006029    -0.8061006    -0.2112000
C           2.2193976    -1.6063425    -0.6079330
H           2.6142010    -1.2129589    -1.5580285
H           1.9519389    -2.6655539    -0.7635315
O           3.1949573    -1.4854172     0.4137904
C           4.4055115    -2.1274542     0.0767825
H           5.0923601    -1.9757156     0.9135521
H           4.8529202    -1.7016146    -0.8359892
H           4.2670983    -3.2104328    -0.0799407
C          -1.2395979    -0.6441264     0.6541516
H          -2.1488986    -1.1038611     1.0322992
C          -0.1525091    -1.4306859     0.2742516
H          -0.1925314    -2.5131783     0.3548083
18
401_C7H9NO_0-5-6-9 (90,) energy =    -402.1145409
N           1.0446316     0.5691223    -0.4512056
C          -0.0168613     1.2805861    -0.0573402
H           0.0372103     2.3537588    -0.2348230
C          -1.1454767     0.7217590     0.5449823
H          -1.9787511     1.3519268     0.8415556
C           1.0157262    -0.7584183    -0.2547871
C           2.2503070    -1.5241987    -0.6688584
H           2.7250749    -1.0056011    -1.5150951
H           1.9828151    -2.5440380    -0.9951611
O           3.1362064    -1.5808982     0.4394375
C           4.3533767    -2.2198451     0.1190123
H           4.9661539    -2.2154315     1.0243011
H           4.8937543    -1.6904662    -0.6823395
H           4.1970237    -3.2634126    -0.2018419
C          -1.1693956    -0.6570663     0.7475139
H          -2.0270159    -1.1365247     1.2119874
C          -0.0695522    -1.4100760     0.3413850
H          -0.0449748    -2.4865449     0.4847373
18
401_C7H9NO_0-5-6-9 (105,) energy =    -402.1151413
N           0.9732683     0.6157008    -0.5539883
C          -0.1169720     1.2859789    -0.1607213
H          -0.1383875     2.3460200    -0.4092172
C          -1.1790411     0.7016431     0.5290710
H          -2.0379594     1.2975256     0.8233768
C           1.0367019    -0.6940509    -0.2724280
C           2.2918344    -1.4201636    -0.6969562
H           2.8330606    -0.7958027    -1.4224176
H           2.0396828    -2.3776035    -1.1859460
O           3.0854846    -1.6601139     0.4564702
C           4.2912001    -2.3259298     0.1467287
H           4.8297500    -2.4690155     1.0872462
H           4.9194090    -1.7354315    -0.5394946
H           4.1084210    -3.3106817    -0.3148891
C          -1.1033999    -0.6594259     0.8255614
H          -1.9068194    -1.1567423     1.3625760
C           0.0225892    -1.3692792     0.4179250
H           0.1261817    -2.4289804     0.6321581
18
401_C7H9NO_0-5-6-9 (120,) energy =    -402.1159090
N           0.9132326     0.6435645    -0.6322313
C          -0.2078435     1.2736292    -0.2565839
H          -0.2996624     2.3107161    -0.5757588
C          -1.2136618     0.6776301     0.5025708
H          -2.0993466     1.2409519     0.7811937
C           1.0624070    -0.6368628    -0.2645618
C           2.3375351    -1.3248368    -0.6947361
H           2.9371341    -0.6161299    -1.2837577
H           2.1088790    -2.1933509    -1.3386681
O           3.0385478    -1.7548075     0.4625052
C           4.2377353    -2.4282470     0.1433972
H           4.7012449    -2.7240909     1.0881966
H           4.9354803    -1.7795649    -0.4100633
H           4.0515394    -3.3303491    -0.4628439
C          -1.0452834    -0.6520377     0.8921877
H          -1.8014994    -1.1558897     1.4884656
C           0.1105123    -1.3213492     0.5020058
H           0.2900099    -2.3526587     0.7897451
18
401_C7H9NO_0-5-6-9 (135,) energy =    -402.1167645
N           0.8650890     0.6444262    -0.6988870
C          -0.2864224     1.2359824    -0.3547529
H          -0.4408015     2.2394775    -0.7485914
C          -1.2470457     0.6433920     0.4634337
H          -2.1598376     1.1753161     0.7149501
C           1.0919071    -0.5938568    -0.2381933
C           2.3905813    -1.2411509    -0.6630603
H           3.0400445    -0.4691483    -1.1008101
H           2.1999665    -1.9970531    -1.4472437
O           2.9985185    -1.8545344     0.4610806
C           4.1901134    -2.5334246     0.1256545
H           4.5805011    -2.9722723     1.0475714
H           4.9453905    -1.8490906    -0.2926607
H           4.0100180    -3.3375092    -0.6068342
C          -0.9958854    -0.6405091     0.9496666
H          -1.7135427    -1.1391153     1.5960399
C           0.1917380    -1.2722107     0.5929149
H           0.4380451    -2.2647995     0.9551326
18
401_C7H9NO_0-5-6-9 (150,) energy =    -402.1175621
N           0.8231033     0.6279263    -0.7605312
C          -0.3509350     1.1899901    -0.4483640
H          -0.5567874     2.1514054    -0.9168205
C          -1.2748647     0.6185136     0.4262045
H          -2.2090320     1.1257873     0.6483554
C           1.1133605    -0.5584622    -0.2067498
C           2.4346008    -1.1683360    -0.6187718
H           3.1281638    -0.3574272    -0.8881279
H           2.2933153    -1.7859298    -1.5251287
O           2.9476859    -1.9600011     0.4356962
C           4.1483792    -2.6147747     0.0860476
H           4.4609297    -3.1994593     0.9550958
H           4.9446220    -1.8968877    -0.1675552
H           4.0086878    -3.2926885    -0.7718282
C          -0.9581012    -0.6104488     1.0053355
H          -1.6450305    -1.0909286     1.6973324
C           0.2552918    -1.2134585     0.6836822
H           0.5523417    -2.1634292     1.1135538
18
401_C7H9NO_0-5-6-9 (165,) energy =    -402.1181089
N           0.7790398     0.5874144    -0.8225625
C          -0.4094263     1.1292581    -0.5356845
H          -0.6591548     2.0413656    -1.0760905
C          -1.2997662     0.5945547     0.3964865
H          -2.2500318     1.0822914     0.5924392
C           1.1231810    -0.5384191    -0.1788336
C           2.4669731    -1.1124136    -0.5697640
H           3.1942304    -0.2889297    -0.6536085
H           2.3904550    -1.5697934    -1.5728126
O           2.8843170    -2.0700465     0.3808384
C           4.1083429    -2.6814155     0.0347055
H           4.3427666    -3.4018809     0.8225399
H           4.9257495    -1.9458331    -0.0327886
H           4.0405366    -3.2120752    -0.9287975
C          -0.9288293    -0.5723172     1.0631570
H          -1.5886188    -1.0234780     1.7999189
C           0.3037654    -1.1541559     0.7718173
H           0.6405329    -2.0585850     1.2645949
18
401_C7H9NO_0-5-6-9 (180,) energy =    -402.1182957
N           0.7370434     0.5345247    -0.8933174
C          -0.4590756     1.0666404    -0.6232354
H          -0.7461570     1.9245201    -1.2299078
C          -1.3166307     0.5827919     0.3663175
H          -2.2779964     1.0565614     0.5412152
C           1.1271621    -0.5245837    -0.1672268
C           2.4903814    -1.0707670    -0.5299977
H           3.2400788    -0.2688399    -0.4171013
H           2.4919530    -1.3535138    -1.5966629
O           2.8092473    -2.1777946     0.2853468
C           4.0713235    -2.7312584    -0.0183252
H           4.2246089    -3.5753644     0.6589261
H           4.8825157    -2.0004620     0.1300558
H           4.1175096    -3.0926222    -1.0582147
C          -0.9001780    -0.5175020     1.1136000
H          -1.5342885    -0.9289909     1.8948158
C           0.3446552    -1.0855928     0.8454443
H           0.7143595    -1.9414604     1.3973323
