26
378_C13H12O_3-0-21-19 (-165,) energy =    -577.8233158
C           1.4363242    -1.4291021     0.3215373
H           2.1197237    -2.2617214     0.5521592
H           1.2134760    -0.9192425     1.2706118
O           2.0682660    -0.5310319    -0.5793947
C           5.6970021     1.3054806     0.3324307
H           6.6418706     1.7972556     0.5442509
C           5.1241637     0.4463462     1.2666358
H           5.6218540     0.2635849     2.2155471
C           3.9073976    -0.1931300     1.0059348
H           3.4826172    -0.8555276     1.7512431
C           3.2582879     0.0349274    -0.2130525
C           3.8303291     0.9001737    -1.1573896
H           3.3070866     1.0624581    -2.0947031
C           5.0396055     1.5281842    -0.8827070
H           5.4727170     2.1964682    -1.6223718
C          -2.1823828    -3.0523646    -1.3879396
H          -3.0909247    -3.4726690    -1.8107976
C          -1.9366781    -3.1483283    -0.0163671
H          -2.6538428    -3.6420698     0.6340991
C          -0.7729409    -2.6029787     0.5239564
H          -0.5914538    -2.6744750     1.5948622
C           0.1621099    -1.9602361    -0.2969546
C          -0.0871543    -1.8695247    -1.6694461
H           0.6321114    -1.3678884    -2.3071378
C          -1.2559516    -2.4101533    -2.2097413
H          -1.4407436    -2.3282156    -3.2777361
26
378_C13H12O_3-0-21-19 (-150,) energy =    -577.8234783
C           1.4640293    -1.4828839     0.3138455
H           2.1865569    -2.3078575     0.4178753
H           1.2784602    -1.0816058     1.3205303
O           2.0179641    -0.4750179    -0.5247918
C           5.6858667     1.3129089     0.3250415
H           6.6392137     1.7942259     0.5224638
C           5.1784694     0.3645300     1.2094432
H           5.7359114     0.1014873     2.1047850
C           3.9514228    -0.2624855     0.9671090
H           3.5771580    -0.9942498     1.6737123
C           3.2258068     0.0684986    -0.1832427
C           3.7314011     1.0245577    -1.0767792
H           3.1488177     1.2659871    -1.9605046
C           4.9515944     1.6391358    -0.8208216
H           5.3330458     2.3780523    -1.5207115
C          -2.1840129    -3.0414134    -1.3887078
H          -3.0985941    -3.4465803    -1.8133900
C          -2.0157907    -2.9899226    -0.0042026
H          -2.8001607    -3.3517755     0.6553091
C          -0.8435987    -2.4611378     0.5376855
H          -0.7230322    -2.4127768     1.6180603
C           0.1763324    -1.9876284    -0.2949559
C           0.0027428    -2.0438055    -1.6825246
H           0.7863458    -1.6660898    -2.3310879
C          -1.1728435    -2.5636134    -2.2247788
H          -1.2988034    -2.5957665    -3.3038981
26
378_C13H12O_3-0-21-19 (-135,) energy =    -577.8234964
C           1.1629722    -0.4900672    -0.7316677
H           0.8529886     0.3681161    -0.1153776
H           1.4526712    -0.1013689    -1.7178990
O           2.2718880    -1.1379149    -0.1102388
C           5.7656588     0.9293939     0.8365120
H           6.6868113     1.4436545     1.0945086
C           4.7385415     1.6070794     0.1847889
H           4.8549026     2.6573704    -0.0701214
C           3.5472622     0.9560041    -0.1536988
H           2.7652501     1.5058791    -0.6645897
C           3.3865402    -0.3964072     0.1702441
C           4.4190433    -1.0843661     0.8254136
H           4.2712283    -2.1331769     1.0637014
C           5.5968321    -0.4232511     1.1536809
H           6.3892560    -0.9671002     1.6613178
C          -2.1276324    -3.2585226    -1.0963755
H          -2.9629225    -3.9481655    -1.1840355
C          -1.7645512    -2.4562408    -2.1778781
H          -2.3129568    -2.5198111    -3.1139742
C          -0.6859930    -1.5763940    -2.0636672
H          -0.3995302    -0.9612678    -2.9138945
C           0.0322540    -1.4807766    -0.8680005
C          -0.3387107    -2.2896171     0.2139414
H           0.2264303    -2.2298095     1.1393775
C          -1.4087344    -3.1753667     0.0991557
H          -1.6837778    -3.8014493     0.9439461
26
378_C13H12O_3-0-21-19 (-120,) energy =    -577.8233949
C           1.1163370    -0.4445233    -0.6491958
H           0.8226926     0.3491526     0.0539667
H           1.3575650     0.0316772    -1.6094557
O           2.2625049    -1.1274119    -0.1363055
C           5.7828190     0.9036726     0.7916076
H           6.7116934     1.4076619     1.0421268
C           4.7135620     1.6193979     0.2592309
H           4.8044153     2.6894957     0.0909487
C           3.5118853     0.9819488    -0.0683565
H           2.6964235     1.5622816    -0.4845313
C           3.3835276    -0.3958825     0.1443905
C           4.4586586    -1.1219400     0.6793721
H           4.3351341    -2.1894745     0.8333901
C           5.6459961    -0.4737482     0.9986933
H           6.4713166    -1.0472877     1.4126476
C          -2.0943485    -3.2862940    -1.1205431
H          -2.9063624    -3.9993119    -1.2358373
C          -1.6140077    -2.5873487    -2.2276005
H          -2.0473700    -2.7551569    -3.2099445
C          -0.5676515    -1.6743272    -2.0765944
H          -0.1889347    -1.1364498    -2.9427786
C           0.0003193    -1.4444158    -0.8204025
C          -0.4882644    -2.1508594     0.2868254
H          -0.0427770    -1.9849645     1.2641794
C          -1.5265915    -3.0679452     0.1380739
H          -1.8959559    -3.6117757     1.0034993
26
378_C13H12O_3-0-21-19 (-105,) energy =    -577.8232565
C           1.0820779    -0.4146797    -0.5664163
H           0.8098175     0.3072653     0.2167296
H           1.2727268     0.1461733    -1.4916494
O           2.2629030    -1.1200085    -0.1711034
C           5.7992695     0.8872992     0.7479816
H           6.7330826     1.3846344     0.9934158
C           4.6939155     1.6268367     0.3353417
H           4.7611799     2.7089352     0.2561536
C           3.4853418     0.9983392     0.0159307
H           2.6413310     1.5978363    -0.3053895
C           3.3866683    -0.3948916     0.1142585
C           4.4983314    -1.1446413     0.5287361
H           4.3972075    -2.2234470     0.5961460
C           5.6920028    -0.5050705     0.8416828
H           6.5455645    -1.0971184     1.1617124
C          -2.0626019    -3.3105000    -1.1419178
H          -2.8549389    -4.0408815    -1.2827802
C          -1.4531622    -2.7153418    -2.2467077
H          -1.7668319    -2.9815911    -3.2525279
C          -0.4360986    -1.7768775    -2.0607462
H           0.0403159    -1.3182501    -2.9241686
C          -0.0224809    -1.4191970    -0.7737379
C          -0.6392961    -2.0230724     0.3294800
H          -0.3188990    -1.7555308     1.3335222
C          -1.6517339    -2.9636118     0.1479114
H          -2.1234387    -3.4244596     1.0116788
26
378_C13H12O_3-0-21-19 (-90,) energy =    -577.8232127
C           1.0463655    -0.4007518    -0.4554805
H           0.7917409     0.2445218     0.3966798
H           1.1928778     0.2407323    -1.3354444
O           2.2552282    -1.1141884    -0.1733562
C           5.8157124     0.8794387     0.6807922
H           6.7566489     1.3727693     0.9063332
C           4.6754981     1.6285509     0.4020540
H           4.7223815     2.7145969     0.4089205
C           3.4574439     1.0050428     0.1099905
H           2.5854442     1.6123723    -0.1039813
C           3.3849497    -0.3932725     0.0981264
C           4.5315418    -1.1526585     0.3784190
H           4.4502077    -2.2351332     0.3630602
C           5.7339371    -0.5177484     0.6663938
H           6.6146406    -1.1173624     0.8816614
C          -2.0535139    -3.3121611    -1.1713580
H          -2.8334470    -4.0475391    -1.3503834
C          -1.2875243    -2.8295915    -2.2342919
H          -1.4685616    -3.1892266    -3.2436608
C          -0.2900520    -1.8823629    -2.0016197
H           0.3072793    -1.5085351    -2.8300083
C          -0.0472493    -1.4062933    -0.7081480
C          -0.8183615    -1.8978365     0.3514084
H          -0.6336508    -1.5363976     1.3603796
C          -1.8165629    -2.8450907     0.1230280
H          -2.4104428    -3.2167095     0.9537568
26
378_C13H12O_3-0-21-19 (-75,) energy =    -577.8232539
C           1.0241054    -0.4160426    -0.3428233
H           0.7882767     0.1469798     0.5705185
H           1.1238384     0.3037205    -1.1678620
O           2.2587233    -1.1206821    -0.1769155
C           5.8275496     0.8864286     0.6070204
H           6.7711895     1.3837487     0.8114939
C           4.6553737     1.6259472     0.4724242
H           4.6797960     2.7081630     0.5721119
C           3.4332775     0.9974769     0.2093053
H           2.5355215     1.5969372     0.1108599
C           3.3897531    -0.3959173     0.0788634
C           4.5683850    -1.1457233     0.2144894
H           4.5085690    -2.2246502     0.1099521
C           5.7742728    -0.5060697     0.4762038
H           6.6800311    -1.0981565     0.5788900
C          -2.0584489    -3.3059384    -1.2048100
H          -2.8346114    -4.0341142    -1.4248326
C          -1.1300976    -2.9531993    -2.1879172
H          -1.1824031    -3.4068964    -3.1740341
C          -0.1383797    -2.0150033    -1.9066640
H           0.5851890    -1.7409984    -2.6706954
C          -0.0586728    -1.4214123    -0.6404314
C          -0.9895486    -1.7832356     0.3383150
H          -0.9331854    -1.3300869     1.3254094
C          -1.9871841    -2.7192587     0.0589973
H          -2.7060031    -2.9897457     0.8278060
26
378_C13H12O_3-0-21-19 (-60,) energy =    -577.8234000
C           1.0212226    -0.4611153    -0.2351629
H           0.8126064     0.0108392     0.7347665
H           1.0634330     0.3354057    -0.9930766
O           2.2796283    -1.1376701    -0.1941368
C           5.8372221     0.9077545     0.5395769
H           6.7785906     1.4156017     0.7279585
C           4.6393296     1.6176852     0.5465098
H           4.6411484     2.6870652     0.7417106
C           3.4198858     0.9752580     0.3058558
H           2.5017059     1.5511966     0.3201727
C           3.4055894    -0.4016990     0.0530602
C           4.6099543    -1.1219229     0.0463251
H           4.5724581    -2.1889102    -0.1504972
C           5.8128567    -0.4688470     0.2880240
H           6.7389181    -1.0378848     0.2799228
C          -2.0672641    -3.2993157    -1.2438793
H          -2.8478470    -4.0096657    -1.5030431
C          -0.9941928    -3.0872803    -2.1143101
H          -0.9388569    -3.6335282    -3.0522256
C           0.0042485    -2.1732320    -1.7840591
H           0.8413618    -2.0118700    -2.4580882
C          -0.0517950    -1.4645857    -0.5763588
C          -1.1248579    -1.6869899     0.2911372
H          -1.1737038    -1.1466315     1.2338111
C          -2.1314676    -2.5967958    -0.0409729
H          -2.9603011    -2.7590772     0.6428741
26
378_C13H12O_3-0-21-19 (-45,) energy =    -577.8235068
C           1.0199919    -0.5074882    -0.1375030
H           0.8470574    -0.1336363     0.8814208
H           1.0055584     0.3603442    -0.8151338
O           2.2922394    -1.1468030    -0.2204627
C           5.8364188     0.9299651     0.4875885
H           6.7746597     1.4469670     0.6663491
C           4.6239700     1.5993294     0.6321535
H           4.6112024     2.6457339     0.9262519
C           3.4083488     0.9447142     0.4055535
H           2.4785647     1.4879564     0.5292337
C           3.4132317    -0.4027118     0.0259140
C           4.6320349    -1.0823437    -0.1195426
H           4.6093419    -2.1274940    -0.4124308
C           5.8309957    -0.4178095     0.1104803
H           6.7686535    -0.9551259    -0.0056521
C          -2.0923354    -3.2662067    -1.2885568
H          -2.8810750    -3.9525650    -1.5848785
C          -0.9059786    -3.2007631    -2.0240130
H          -0.7697539    -3.8373477    -2.8943614
C           0.1060198    -2.3194824    -1.6468095
H           1.0316157    -2.2738010    -2.2127804
C          -0.0519586    -1.4980359    -0.5232789
C          -1.2381744    -1.5750322     0.2128021
H          -1.3661591    -0.9488812     1.0931495
C          -2.2569452    -2.4503498    -0.1692430
H          -3.1729788    -2.5000096     0.4134046
26
378_C13H12O_3-0-21-19 (-30,) energy =    -577.8234576
C           1.0332650    -0.5518270    -0.0695402
H           0.9061882    -0.2815056     0.9886791
H           0.9596698     0.3779133    -0.6558800
O           2.3118109    -1.1400939    -0.2782754
C           5.8376249     0.9539756     0.4669032
H           6.7712760     1.4769588     0.6520776
C           4.6185144     1.5738477     0.7287850
H           4.5959288     2.5870822     1.1217303
C           3.4086870     0.9111226     0.4951115
H           2.4736726     1.4150277     0.7110776
C           3.4265008    -0.3936751    -0.0113752
C           4.6518333    -1.0236536    -0.2753864
H           4.6394770    -2.0367519    -0.6654457
C           5.8450004    -0.3517091    -0.0367605
H           6.7880106    -0.8501802    -0.2455561
C          -2.1024933    -3.2432020    -1.3199497
H          -2.8985658    -3.9105952    -1.6390072
C          -0.8445661    -3.3124392    -1.9215750
H          -0.6581543    -4.0355852    -2.7113482
C           0.1794390    -2.4565044    -1.5145055
H           1.1593062    -2.5140276    -1.9765785
C          -0.0423019    -1.5252432    -0.4939904
C          -1.3026359    -1.4669343     0.1114534
H          -1.4822053    -0.7546487     0.9143304
C          -2.3297062    -2.3162496    -0.3014100
H          -3.3027386    -2.2601137     0.1794430
26
378_C13H12O_3-0-21-19 (-15,) energy =    -577.8232989
C           1.0464887    -0.5907262    -0.0208679
H           0.9714813    -0.4251572     1.0643361
H           0.9180398     0.3884005    -0.5087424
O           2.3231366    -1.1202651    -0.3472426
C           5.8373505     0.9703485     0.4586684
H           6.7680362     1.4937205     0.6571337
C           4.6191002     1.5323672     0.8315138
H           4.5941060     2.5006929     1.3247165
C           3.4132013     0.8683498     0.5819390
H           2.4789336     1.3269590     0.8845097
C           3.4341749    -0.3788387    -0.0530811
C           4.6584901    -0.9501484    -0.4303071
H           4.6492051    -1.9189924    -0.9201553
C           5.8477855    -0.2776719    -0.1743580
H           6.7901516    -0.7304505    -0.4713843
C          -2.1077977    -3.2355773    -1.3284178
H          -2.9089694    -3.8918682    -1.6574958
C          -0.8076884    -3.4247182    -1.7971717
H          -0.5915512    -4.2307184    -2.4936978
C           0.2246169    -2.5832995    -1.3765397
H           1.2360321    -2.7316844    -1.7376974
C          -0.0350810    -1.5450660    -0.4775142
C          -1.3409427    -1.3636288    -0.0048655
H          -1.5532588    -0.5636279     0.7021559
C          -2.3723915    -2.1998552    -0.4293338
H          -3.3805065    -2.0469720    -0.0530963
26
378_C13H12O_3-0-21-19 (0,) energy =    -577.8232061
C           1.0475488    -0.6181552     0.0071824
H           1.0372666    -0.5604550     1.1066262
H           0.8628911     0.3986494    -0.3725536
O           2.3142401    -1.0768816    -0.4384410
C           5.8311249     0.9689395     0.4643390
H           6.7622231     1.4824971     0.6852231
C           4.6203854     1.4712525     0.9342115
H           4.6017681     2.3826771     1.5262181
C           3.4139564     0.8193889     0.6568062
H           2.4854308     1.2314431     1.0346315
C           3.4269199    -0.3549722    -0.1046941
C           4.6435390    -0.8656728    -0.5806007
H           4.6281009    -1.7779206    -1.1690298
C           5.8334569    -0.2058839    -0.2960313
H           6.7698724    -0.6112328    -0.6703288
C          -2.1182202    -3.2403816    -1.3225874
H          -2.9226383    -3.8927335    -1.6515753
C          -0.7965658    -3.5265701    -1.6628041
H          -0.5664743    -4.4053251    -2.2597374
C           0.2400458    -2.6897827    -1.2415362
H           1.2676772    -2.9117729    -1.5051993
C          -0.0386009    -1.5562062    -0.4739528
C          -1.3681480    -1.2734114    -0.1342414
H          -1.5969765    -0.3933464     0.4644073
C          -2.4017745    -2.1081780    -0.5545944
H          -3.4280584    -1.8751897    -0.2831021
26
378_C13H12O_3-0-21-19 (15,) energy =    -577.8232991
C           1.0573508    -0.6405543     0.0506470
H           1.1101802    -0.6869886     1.1498877
H           0.8281453     0.4010995    -0.2197105
O           2.3079306    -1.0246529    -0.5018242
C           5.8383525     0.9676546     0.4656255
H           6.7726114     1.4690054     0.7007654
C           4.6428940     1.4027422     1.0318602
H           4.6394556     2.2491584     1.7138345
C           3.4326102     0.7656975     0.7372774
H           2.5159850     1.1254786     1.1901345
C           3.4260956    -0.3253502    -0.1394911
C           4.6271636    -0.7673650    -0.7136933
H           4.5962849    -1.6144967    -1.3919973
C           5.8210611    -0.1230416    -0.4109951
H           6.7452498    -0.4745792    -0.8622028
C          -2.1062464    -3.2452408    -1.3148922
H          -2.9089928    -3.8971108    -1.6489233
C          -0.7748653    -3.6144020    -1.5070646
H          -0.5360516    -4.5569520    -1.9929115
C           0.2592653    -2.7788860    -1.0791561
H           1.2942449    -3.0637488    -1.2309889
C          -0.0306132    -1.5611874    -0.4571885
C          -1.3690512    -1.1926572    -0.2719821
H          -1.6063831    -0.2430339     0.2043440
C          -2.4011906    -2.0293665    -0.6938280
H          -3.4348723    -1.7290107    -0.5438255
26
378_C13H12O_3-0-21-19 (30,) energy =    -577.8234571
C           1.0610419    -0.6572068     0.0993889
H           1.1848905    -0.8086337     1.1835498
H           0.7902143     0.3973276    -0.0542796
O           2.2865810    -0.9535878    -0.5597486
C           5.8440158     0.9663266     0.4557747
H           6.7847508     1.4505317     0.7008697
C           4.6715028     1.3303638     1.1128309
H           4.6926109     2.1040171     1.8760965
C           3.4531297     0.7146901     0.8062036
H           2.5544915     1.0194723     1.3299929
C           3.4149525    -0.2832100    -0.1746716
C           4.5928683    -0.6526878    -0.8410117
H           4.5370379    -1.4274068    -1.5995353
C           5.7950732    -0.0304894    -0.5252882
H           6.7010143    -0.3256258    -1.0482604
C          -2.0923058    -3.2407759    -1.3214063
H          -2.8907336    -3.8918067    -1.6672643
C          -0.7666577    -3.6776605    -1.3526436
H          -0.5298566    -4.6713272    -1.7240925
C           0.2607868    -2.8443854    -0.9088697
H           1.2920184    -3.1800196    -0.9385611
C          -0.0271227    -1.5596702    -0.4352463
C          -1.3568836    -1.1241233    -0.4143105
H          -1.5906651    -0.1226646    -0.0584237
C          -2.3855289    -1.9603199    -0.8493955
H          -3.4132475    -1.6074346    -0.8287809
26
378_C13H12O_3-0-21-19 (45,) energy =    -577.8235066
C           1.0705011    -0.7039003     0.1682323
H           1.2624116    -0.9572060     1.2225225
H           0.7706788     0.3528448     0.1319660
O           2.2629966    -0.9059954    -0.5875653
C           5.8415188     0.9727907     0.4307745
H           6.7866532     1.4490416     0.6745910
C           4.6990675     1.2511109     1.1767015
H           4.7482536     1.9491578     2.0085216
C           3.4751529     0.6450703     0.8728588
H           2.5997065     0.8823663     1.4663569
C           3.4009296    -0.2557954    -0.1960214
C           4.5485188    -0.5385203    -0.9520982
H           4.4646060    -1.2386802    -1.7775554
C           5.7565232     0.0730289    -0.6378665
H           6.6387334    -0.1541398    -1.2307418
C          -2.0834335    -3.2264303    -1.3523708
H          -2.8805532    -3.8645540    -1.7243770
C          -0.7909537    -3.7351509    -1.1996150
H          -0.5803605    -4.7708191    -1.4532971
C           0.2324357    -2.9189458    -0.7205550
H           1.2389651    -3.3109648    -0.6094677
C          -0.0216572    -1.5801216    -0.3962437
C          -1.3153853    -1.0757523    -0.5597392
H          -1.5207031    -0.0344686    -0.3209275
C          -2.3440462    -1.8945466    -1.0303615
H          -3.3444140    -1.4880878    -1.1533511
26
378_C13H12O_3-0-21-19 (60,) energy =    -577.8234007
C           1.0943720    -0.7751331     0.2537630
H           1.3484758    -1.1243164     1.2657586
H           0.7767146     0.2737173     0.3317789
O           2.2479859    -0.8798830    -0.5833297
C           5.8343769     1.0081457     0.3921972
H           6.7808014     1.4886463     0.6222552
C           4.7337818     1.1818040     1.2273646
H           4.8171331     1.8018726     2.1162847
C           3.5088753     0.5687029     0.9418039
H           2.6667344     0.7229905     1.6065739
C           3.3901151    -0.2323024    -0.2002689
C           4.4958214    -0.4093674    -1.0459651
H           4.3779239    -1.0337261    -1.9262108
C           5.7053136     0.2074503    -0.7484664
H           6.5544212     0.0623286    -1.4112842
C          -2.0642044    -3.2052778    -1.3976080
H          -2.8608093    -3.8208086    -1.8069183
C          -0.8430253    -3.7847498    -1.0411541
H          -0.6880712    -4.8522803    -1.1732880
C           0.1768945    -2.9965360    -0.5121492
H           1.1282566    -3.4457890    -0.2398470
C          -0.0067040    -1.6180436    -0.3394494
C          -1.2284332    -1.0455486    -0.7042824
H          -1.3779424     0.0246111    -0.5803843
C          -2.2556716    -1.8344618    -1.2274061
H          -3.2007199    -1.3760434    -1.5060393
26
378_C13H12O_3-0-21-19 (75,) energy =    -577.8232542
C           1.1261865    -0.8544596     0.3345834
H           1.4368702    -1.2906422     1.2947561
H           0.8025913     0.1785933     0.5213739
O           2.2347546    -0.8624618    -0.5705862
C           5.8152891     1.0651269     0.3481039
H           6.7590069     1.5583743     0.5618766
C           4.7665022     1.1227084     1.2622857
H           4.8881074     1.6638691     2.1972099
C           3.5457107     0.4918766     0.9987605
H           2.7452370     0.5539222     1.7270451
C           3.3775731    -0.2081272    -0.2021579
C           4.4314358    -0.2683628    -1.1270974
H           4.2763385    -0.8164197    -2.0513128
C           5.6377338     0.3640945    -0.8502394
H           6.4461909     0.3098277    -1.5747769
C          -2.0584021    -3.1651076    -1.4312996
H          -2.8598037    -3.7497283    -1.8751912
C          -0.9479156    -3.8070548    -0.8768521
H          -0.8833053    -4.8918173    -0.8889526
C           0.0768315    -3.0566980    -0.3027126
H           0.9416242    -3.5561564     0.1274041
C           0.0080471    -1.6578189    -0.2788243
C          -1.1052416    -1.0241315    -0.8394694
H          -1.1653332     0.0617484    -0.8286350
C          -2.1360580    -1.7722397    -1.4115112
H          -2.9969208    -1.2672628    -1.8414491
26
378_C13H12O_3-0-21-19 (90,) energy =    -577.8232120
C           1.1680332    -0.9478409     0.3899465
H           1.5276321    -1.4621017     1.2920055
H           0.8444136     0.0611756     0.6805600
O           2.2299279    -0.8568701    -0.5660124
C           5.7898383     1.1253624     0.3146992
H           6.7269234     1.6354912     0.5177779
C           4.7966939     1.0611157     1.2886402
H           4.9556055     1.5228316     2.2598781
C           3.5851049     0.4069493     1.0399863
H           2.8289706     0.3710570     1.8158913
C           3.3692831    -0.1913620    -0.2073959
C           4.3672715    -0.1293944    -1.1923384
H           4.1762254    -0.6009848    -2.1513489
C           5.5653740     0.5241046    -0.9291637
H           6.3303413     0.5651384    -1.7003111
C          -2.0590252    -3.1368790    -1.4497938
H          -2.8707526    -3.6894180    -1.9154989
C          -1.0800008    -3.8143585    -0.7203315
H          -1.1265282    -4.8952163    -0.6177169
C          -0.0410311    -3.1032293    -0.1194527
H           0.7226691    -3.6308767     0.4472596
C           0.0310653    -1.7108005    -0.2393269
C          -0.9536041    -1.0407612    -0.9745239
H          -0.9023920     0.0408826    -1.0754400
C          -1.9942270    -1.7478245    -1.5770015
H          -2.7542998    -1.2158352    -2.1428974
26
378_C13H12O_3-0-21-19 (105,) energy =    -577.8232578
C           1.2103041    -1.0396741     0.4131358
H           1.6161669    -1.6224866     1.2512511
H           0.8856724    -0.0649612     0.8047510
O           2.2235129    -0.8394431    -0.5774982
C           5.7659911     1.1749959     0.3012837
H           6.6973990     1.6960805     0.5026328
C           4.8256391     0.9954679     1.3124750
H           5.0205089     1.3771699     2.3115044
C           3.6220949     0.3256891     1.0662999
H           2.9081911     0.1981736     1.8719629
C           3.3601364    -0.1702163    -0.2166295
C           4.3051605     0.0074704    -1.2389130
H           4.0793654    -0.3868946    -2.2248587
C           5.4960965     0.6747567    -0.9777445
H           6.2197417     0.8059720    -1.7781339
C          -2.0781751    -3.1139038    -1.4530132
H          -2.9072976    -3.6343296    -1.9250218
C          -1.2270572    -3.7963621    -0.5833340
H          -1.3889853    -4.8509001    -0.3767982
C          -0.1631213    -3.1245541     0.0218667
H           0.5021345    -3.6593624     0.6958794
C           0.0570857    -1.7668572    -0.2296581
C          -0.8020588    -1.0901108    -1.1048972
H          -0.6329037    -0.0357560    -1.3099047
C          -1.8624716    -1.7582327    -1.7147032
H          -2.5228919    -1.2223011    -2.3912002
26
378_C13H12O_3-0-21-19 (120,) energy =    -577.8233949
C           1.2697460    -1.1412084     0.4147957
H           1.7124592    -1.7856935     1.1866330
H           0.9512063    -0.2068853     0.9006966
O           2.2389306    -0.8409654    -0.5920038
C           5.7390660     1.2413960     0.2973724
H           6.6583523     1.7826654     0.5011158
C           4.8574707     0.9350334     1.3307929
H           5.0866869     1.2366873     2.3496875
C           3.6702365     0.2377994     1.0818109
H           3.0034246     0.0086499     1.9051206
C           3.3646402    -0.1554785    -0.2266444
C           4.2504983     0.1495152    -1.2713777
H           3.9919453    -0.1677266    -2.2769207
C           5.4263441     0.8419281    -1.0070542
H           6.1041462     1.0724084    -1.8249322
C          -2.1043261    -3.0848289    -1.4414423
H          -2.9579793    -3.5701703    -1.9070227
C          -1.3789296    -3.7445057    -0.4497516
H          -1.6621315    -4.7472321    -0.1410320
C          -0.2800819    -3.1190897     0.1440616
H           0.2892366    -3.6392560     0.9110661
C           0.0973261    -1.8289136    -0.2387337
C          -0.6365458    -1.1734995    -1.2365106
H          -0.3401035    -0.1751237    -1.5472288
C          -1.7283576    -1.7976420    -1.8363053
H          -2.2889166    -1.2803592    -2.6104783
26
378_C13H12O_3-0-21-19 (135,) energy =    -577.8234970
C           1.3185892    -1.2220721     0.3981284
H           1.8072541    -1.9214078     1.0908771
H           1.0033351    -0.3434544     0.9820439
O           2.2342877    -0.8087576    -0.6148687
C           5.7210094     1.2814423     0.3070078
H           6.6356481     1.8273636     0.5190288
C           4.8938146     0.8614338     1.3454351
H           5.1612244     1.0783308     2.3764895
C           3.7132758     0.1567511     1.0858925
H           3.0894550    -0.1623606     1.9128967
C           3.3590618    -0.1275141    -0.2383003
C           4.1898473     0.2919262    -1.2882961
H           3.8945870     0.0572686    -2.3063301
C           5.3599085     0.9900607    -1.0133937
H           5.9950643     1.3098147    -1.8354273
C          -2.1390718    -3.0559572    -1.4187057
H          -3.0161132    -3.5124696    -1.8697122
C          -1.5180654    -3.6606819    -0.3260160
H          -1.9061968    -4.5924538     0.0767295
C          -0.3868399    -3.0751220     0.2465354
H           0.1011744    -3.5559168     1.0915569
C           0.1276231    -1.8772347    -0.2583096
C          -0.5018827    -1.2750322    -1.3553678
H          -0.0969168    -0.3522796    -1.7602856
C          -1.6253028    -1.8628866    -1.9341512
H          -2.1021993    -1.3893673    -2.7883346
26
378_C13H12O_3-0-21-19 (150,) energy =    -577.8234781
C           1.3606840    -1.3030455     0.3755750
H           1.8995086    -2.0509151     0.9749178
H           1.0541505    -0.4948548     1.0584709
O           2.2143657    -0.7712036    -0.6315446
C           5.7032342     1.3011706     0.3202749
H           6.6169232     1.8455012     0.5402514
C           4.9333242     0.7700347     1.3518579
H           5.2449367     0.8977187     2.3853786
C           3.7545663     0.0663078     1.0820070
H           3.1758589    -0.3403638     1.9033146
C           3.3438629    -0.1033129    -0.2453801
C           4.1166012     0.4281910    -1.2886763
H           3.7784066     0.2811462    -2.3097851
C           5.2857455     1.1238705    -1.0036743
H           5.8757627     1.5312526    -1.8205391
C          -2.1740650    -3.0413572    -1.3917400
H          -3.0713592    -3.4733083    -1.8267946
C          -1.6457911    -3.5621173    -0.2095661
H          -2.1280159    -4.4044347     0.2793944
C          -0.4884461    -3.0101598     0.3411069
H          -0.0748250    -3.4281333     1.2566844
C           0.1482620    -1.9274619    -0.2754956
C          -0.3875321    -1.4080842    -1.4594506
H           0.1104894    -0.5763648    -1.9468405
C          -1.5391307    -1.9655672    -2.0156305
H          -1.9416776    -1.5577228    -2.9392148
26
378_C13H12O_3-0-21-19 (165,) energy =    -577.8233163
C           1.4022074    -1.3591579     0.3458479
H           1.9881033    -2.1490170     0.8391502
H           1.1148388    -0.6336410     1.1232737
O           2.1902595    -0.7098464    -0.6414111
C           5.6956551     1.3217673     0.3356365
H           6.6121773     1.8582932     0.5628159
C           4.9891352     0.6740090     1.3457369
H           5.3533812     0.7021864     2.3694820
C           3.8073650    -0.0208028     1.0663970
H           3.2783355    -0.5190522     1.8705226
C           3.3294263    -0.0628186    -0.2485049
C           4.0376913     0.5867887    -1.2702724
H           3.6479323     0.5383248    -2.2824095
C           5.2107557     1.2720695    -0.9761418
H           5.7506408     1.7716659    -1.7762817
C          -2.1871376    -3.0278309    -1.3825962
H          -3.0966074    -3.4458655    -1.8057331
C          -1.7517748    -3.4290287    -0.1175627
H          -2.3199780    -4.1625517     0.4483852
C          -0.5812846    -2.8951085     0.4195882
H          -0.2437275    -3.2183772     1.4026651
C           0.1660862    -1.9506363    -0.2950679
C          -0.2752034    -1.5505301    -1.5596384
H           0.3041568    -0.8238197    -2.1180403
C          -1.4442438    -2.0902967    -2.1003446
H          -1.7739298    -1.7748619    -3.0868876
26
378_C13H12O_3-0-21-19 (180,) energy =    -577.8232062
C           1.4173528    -1.3873491     0.3316431
H           2.0582020    -2.2054221     0.6953829
H           1.1560685    -0.7680217     1.2036288
O           2.1253288    -0.6070911    -0.6187575
C           5.6990543     1.3103351     0.3408860
H           6.6315786     1.8201262     0.5644644
C           5.0556807     0.5564344     1.3189961
H           5.4854556     0.4745138     2.3140306
C           3.8540082    -0.1051429     1.0439681
H           3.3737832    -0.6855968     1.8231721
C           3.2921540    -0.0060858    -0.2341906
C           3.9357925     0.7518896    -1.2234485
H           3.4806522     0.8137542    -2.2071670
C           5.1292658     1.4030501    -0.9339111
H           5.6186616     1.9874458    -1.7086703
C          -2.1858493    -3.0434149    -1.3828848
H          -3.0946978    -3.4653974    -1.8033605
C          -1.8435848    -3.2985637    -0.0524620
H          -2.4846963    -3.9199396     0.5673145
C          -0.6775512    -2.7561972     0.4841839
H          -0.4174523    -2.9594921     1.5216241
C           0.1623108    -1.9525758    -0.2980802
C          -0.1841580    -1.7003764    -1.6277420
H           0.4633879    -1.0791244    -2.2356404
C          -1.3533813    -2.2443075    -2.1657002
H          -1.6115231    -2.0403952    -3.2016930
