26
378_C13H12O_21-0-3-10 (-165,) energy =    -577.8232104
C           1.0337102    -0.5416367     0.0483207
H           1.2675982    -0.7682183     1.0996160
H           0.6729158     0.4958992     0.0067637
O           2.2156498    -0.6876334    -0.7363998
C           5.8886402     0.8305033     0.5211726
H           6.8580613     1.2129985     0.8269078
C           4.7374466     1.1892363     1.2179965
H           4.8039176     1.8589922     2.0715659
C           3.4829087     0.7041254     0.8333806
H           2.5997130     1.0111740     1.3820489
C           3.3862694    -0.1595917    -0.2639999
C           4.5419400    -0.5200196    -0.9726737
H           4.4405183    -1.1873161    -1.8230288
C           5.7808198    -0.0264339    -0.5799098
H           6.6695165    -0.3144822    -1.1354509
C          -2.0144942    -3.2788559    -1.3096901
H          -2.7847742    -3.9709962    -1.6392630
C          -0.6815755    -3.6921817    -1.2408359
H          -0.4128155    -4.7082389    -1.5178050
C           0.3081223    -2.8064337    -0.8170516
H           1.3454971    -3.1235271    -0.7717644
C          -0.0223858    -1.4923175    -0.4636707
C          -1.3569220    -1.0824048    -0.5440815
H          -1.6218571    -0.0599102    -0.2834116
C          -2.3505876    -1.9711317    -0.9592241
H          -3.3833026    -1.6377149    -1.0177727
26
378_C13H12O_21-0-3-10 (-150,) energy =    -577.8220692
C           0.9494428    -0.3381949    -0.0472937
H           1.2239402    -0.5201369     1.0014622
H           0.5038665     0.6646298    -0.1037757
O           2.1226737    -0.4012186    -0.8585871
C           5.8929805     0.6223128     0.5972827
H           6.8864222     0.8775661     0.9543042
C           4.7628289     1.0674767     1.2795391
H           4.8707817     1.6797025     2.1712170
C           3.4785964     0.7471858     0.8279822
H           2.6128315     1.1271180     1.3593980
C           3.3283319    -0.0419939    -0.3185744
C           4.4623543    -0.4856992    -1.0137490
H           4.3203048    -1.0895752    -1.9047189
C           5.7329425    -0.1528457    -0.5562591
H           6.6047248    -0.5053384    -1.1013790
C          -1.8969454    -3.3626827    -1.2263657
H          -2.6155534    -4.1272174    -1.5093402
C          -0.5313722    -3.6572217    -1.2033889
H          -0.1848309    -4.6525128    -1.4692646
C           0.3925025    -2.6782093    -0.8404490
H           1.4543805    -2.9041575    -0.8322770
C          -0.0374432    -1.3896717    -0.5008312
C          -1.4048994    -1.0989035    -0.5358982
H          -1.7482140    -0.0969798    -0.2867660
C          -2.3322257    -2.0804428    -0.8909747
H          -3.3916503    -1.8392153    -0.9148894
26
378_C13H12O_21-0-3-10 (-135,) energy =    -577.8205560
C           0.8542180    -0.1390294    -0.1247195
H           1.1405217    -0.2575260     0.9283925
H           0.3279652     0.8197131    -0.2198412
O           2.0288455    -0.1206811    -0.9397061
C           5.8604077     0.3861138     0.6271920
H           6.8683213     0.5092195     1.0125897
C           4.7720003     0.9154685     1.3184087
H           4.9287498     1.4627853     2.2443823
C           3.4708390     0.7661059     0.8299050
H           2.6405716     1.2142687     1.3656135
C           3.2573736     0.0613925    -0.3610929
C           4.3493941    -0.4645279    -1.0650009
H           4.1603809    -0.9975365    -1.9917420
C           5.6401448    -0.2994202    -0.5715988
H           6.4790004    -0.7147614    -1.1240733
C          -1.7401826    -3.4301584    -1.1685665
H          -2.3946554    -4.2612228    -1.4175056
C          -0.3544117    -3.6078760    -1.1563876
H           0.0718972    -4.5785110    -1.3962715
C           0.4877301    -2.5433701    -0.8378465
H           1.5648483    -2.6803839    -0.8377509
C          -0.0455383    -1.2856217    -0.5313946
C          -1.4330742    -1.1122297    -0.5556840
H          -1.8569703    -0.1352212    -0.3327042
C          -2.2784091    -2.1789969    -0.8667921
H          -3.3546476    -2.0285631    -0.8830960
26
378_C13H12O_21-0-3-10 (-120,) energy =    -577.8201238
C           0.9406404     0.0375571    -0.8082903
H           1.0525183     0.4920516     0.1835426
H           0.5113658     0.8066477    -1.4650211
O           2.2199600    -0.2939356    -1.3470994
C           5.7341649     0.2412116     0.8340445
H           6.6616491     0.3768918     1.3827433
C           4.5784889    -0.1731318     1.4968136
H           4.6042840    -0.3716252     2.5651782
C           3.3822717    -0.3547492     0.7995160
H           2.4989767    -0.7139817     1.3187369
C           3.3414321    -0.1023739    -0.5770937
C           4.4983045     0.3073786    -1.2491516
H           4.4420719     0.4911286    -2.3175690
C           5.6880125     0.4731179    -0.5432469
H           6.5817634     0.7937968    -1.0721264
C          -1.7582385    -3.3318895    -0.5869121
H          -2.4426458    -4.1737153    -0.5249886
C          -0.4079963    -3.5423558    -0.8648778
H          -0.0351145    -4.5511971    -1.0221012
C           0.4730595    -2.4609069    -0.9458121
H           1.5217396    -2.6217282    -1.1723995
C           0.0098200    -1.1575318    -0.7500656
C          -1.3490993    -0.9510790    -0.4776369
H          -1.7232986     0.0609059    -0.3319172
C          -2.2274356    -2.0298021    -0.3934105
H          -3.2789341    -1.8546455    -0.1811721
26
378_C13H12O_21-0-3-10 (-105,) energy =    -577.8215271
C           0.9056959     0.0982819    -1.1042509
H           0.9309324     0.7559102    -0.2275150
H           0.4719985     0.6776565    -1.9302757
O           2.2295749    -0.2206552    -1.5308550
C           5.5070831     0.1866307     1.0149928
H           6.3754797     0.2921446     1.6587533
C           4.2512703    -0.0726580     1.5628903
H           4.1379341    -0.1798291     2.6386128
C           3.1279316    -0.2135522     0.7440766
H           2.1640747    -0.4532744     1.1810082
C           3.2662779    -0.0784326    -0.6423262
C           4.5253979     0.1746256    -1.2001008
H           4.6064136     0.2714527    -2.2783381
C           5.6373970     0.3029907    -0.3720588
H           6.6103838     0.5031523    -0.8132382
C          -1.6155155    -3.3461956    -0.4191729
H          -2.2582761    -4.2066166    -0.2534704
C          -0.4258300    -3.4852438    -1.1352647
H          -0.1384256    -4.4565133    -1.5295965
C           0.4017435    -2.3812906    -1.3492190
H           1.3290509    -2.4866932    -1.9028673
C           0.0489604    -1.1261953    -0.8441332
C          -1.1434056    -0.9936276    -0.1212298
H          -1.4251513    -0.0225653     0.2823029
C          -1.9732163    -2.0949812     0.0878195
H          -2.8943992    -1.9777055     0.6526602
26
378_C13H12O_21-0-3-10 (-90,) energy =    -577.8228767
C           0.8828570     0.2119729    -1.2413277
H           0.8490876     0.9344224    -0.4158690
H           0.4168821     0.6896451    -2.1118886
O           2.2298248    -0.0177026    -1.6480350
C           5.3882940    -0.0220537     1.0756099
H           6.2284942    -0.0198895     1.7638773
C           4.0863629    -0.1617690     1.5525165
H           3.9062761    -0.2769953     2.6182782
C           2.9964599    -0.1684937     0.6768553
H           1.9943111    -0.3125928     1.0646305
C           3.2193350    -0.0228750    -0.6970941
C           4.5263141     0.1116651    -1.1844542
H           4.6725663     0.2219819    -2.2545592
C           5.6006764     0.1099955    -0.3004283
H           6.6102010     0.2186037    -0.6883572
C          -1.3708067    -3.3564124    -0.3038138
H          -1.9467802    -4.2494729    -0.0766432
C          -0.2662590    -3.4305907    -1.1548104
H           0.0204020    -4.3834114    -1.5922308
C           0.4747530    -2.2852564    -1.4480154
H           1.3366804    -2.3412468    -2.1056484
C           0.1227915    -1.0527252    -0.8872894
C          -0.9815557    -0.9858952    -0.0294601
H          -1.2603953    -0.0335026     0.4179092
C          -1.7278116    -2.1295638     0.2582970
H          -2.5816580    -2.0631936     0.9275093
26
378_C13H12O_21-0-3-10 (-75,) energy =    -577.8231459
C           0.8189516     0.3348091    -1.3380522
H           0.6979935     1.0956915    -0.5543549
H           0.3387230     0.7208429    -2.2441537
O           2.1902773     0.2183441    -1.7070390
C           5.2547434    -0.2303039     1.0870395
H           6.0729467    -0.3417008     1.7925783
C           3.9355729    -0.2088431     1.5343527
H           3.7183823    -0.3077177     2.5948467
C           2.8720727    -0.0684353     0.6371133
H           1.8542679    -0.0784991     1.0079890
C           3.1405436     0.0555875    -0.7305129
C           4.4657778     0.0318051    -1.1878553
H           4.6482352     0.1322180    -2.2534282
C           5.5119626    -0.1106924    -0.2826792
H           6.5352117    -0.1257349    -0.6489963
C          -1.1391831    -3.3540516    -0.2202148
H          -1.6411895    -4.2786907     0.0516485
C          -0.0853595    -3.3704630    -1.1367248
H           0.2350747    -4.3095004    -1.5803727
C           0.5599803    -2.1847081    -1.4873994
H           1.3819993    -2.1964306    -2.1969235
C           0.1647536    -0.9686641    -0.9184043
C          -0.8883643    -0.9597932     0.0031281
H          -1.2004264    -0.0202134     0.4555290
C          -1.5409745    -2.1445528     0.3483866
H          -2.3562298    -2.1227359     1.0668154
26
378_C13H12O_21-0-3-10 (-60,) energy =    -577.8218979
C           0.7555118     0.4342034    -1.3993098
H           0.5180710     1.2144744    -0.6610705
H           0.2897860     0.7305285    -2.3451092
O           2.1505002     0.4499184    -1.6984464
C           5.1285118    -0.4199535     1.0891636
H           5.9253274    -0.6389174     1.7940353
C           3.8222795    -0.2326203     1.5370206
H           3.5946143    -0.3047365     2.5974732
C           2.7869271     0.0479778     0.6405608
H           1.7780070     0.1813111     1.0118629
C           3.0680844     0.1375383    -0.7271763
C           4.3800396    -0.0489881    -1.1841681
H           4.5740889     0.0313748    -2.2494294
C           5.4001351    -0.3249079    -0.2793751
H           6.4134806    -0.4676189    -0.6457793
C          -0.9157051    -3.3548202    -0.1601029
H          -1.3468256    -4.3057138     0.1412489
C           0.1094588    -3.3178766    -1.1084511
H           0.4779416    -4.2413190    -1.5474082
C           0.6624682    -2.0984543    -1.4973107
H           1.4609889    -2.0697607    -2.2331573
C           0.2056606    -0.9007044    -0.9340480
C          -0.8182221    -0.9457843     0.0180239
H          -1.1787978    -0.0209807     0.4645981
C          -1.3804803    -2.1650106     0.4012096
H          -2.1745317    -2.1843978     1.1430356
26
378_C13H12O_21-0-3-10 (-45,) energy =    -577.8193897
C           0.7037195     0.4991250    -1.4751859
H           0.3341585     1.2912056    -0.8068221
H           0.2947125     0.6992701    -2.4709425
O           2.1159048     0.6478569    -1.6629114
C           5.0096021    -0.5766585     1.0789639
H           5.7841254    -0.8855342     1.7750572
C           3.7281948    -0.2745236     1.5388946
H           3.5001339    -0.3440704     2.5994455
C           2.7239112     0.1239865     0.6535676
H           1.7347412     0.3596476     1.0286884
C           3.0059133     0.2097791    -0.7145673
C           4.2919637    -0.0885799    -1.1821707
H           4.4887295    -0.0056425    -2.2467183
C           5.2857293    -0.4769881    -0.2875479
H           6.2801019    -0.7068814    -0.6616260
C          -0.7413060    -3.3362904    -0.1048605
H          -1.1154986    -4.3001036     0.2297100
C           0.2491681    -3.2709729    -1.0884630
H           0.6468957    -4.1849218    -1.5216164
C           0.7278510    -2.0352266    -1.5198906
H           1.4988745    -1.9862326    -2.2839433
C           0.2330037    -0.8475713    -0.9651027
C          -0.7560305    -0.9221686     0.0207888
H          -1.1472564    -0.0062075     0.4593583
C          -1.2453519    -2.1586562     0.4472781
H          -2.0137265    -2.2000394     1.2147501
26
378_C13H12O_21-0-3-10 (-30,) energy =    -577.8163064
C           0.6809460     0.5250016    -1.5626688
H           0.1786705     1.3225583    -0.9963219
H           0.3700463     0.6251789    -2.6079839
O           2.0919427     0.8030152    -1.6021832
C           4.9441372    -0.6824690     1.0522220
H           5.7077781    -1.0551367     1.7289524
C           3.6784796    -0.3466999     1.5343705
H           3.4535195    -0.4529678     2.5925464
C           2.6908545     0.1362644     0.6740394
H           1.7149362     0.4059085     1.0618960
C           2.9690447     0.2696179    -0.6915772
C           4.2385738    -0.0616301    -1.1798668
H           4.4346199     0.0612342    -2.2407002
C           5.2196520    -0.5314476    -0.3091080
H           6.2021848    -0.7856069    -0.6985407
C          -0.6373109    -3.3081657    -0.0671307
H          -0.9798584    -4.2723136     0.2989201
C           0.3434185    -3.2429855    -1.0607494
H           0.7650875    -4.1572579    -1.4697713
C           0.7798386    -2.0069946    -1.5332647
H           1.5424309    -1.9593720    -2.3061950
C           0.2529818    -0.8174491    -1.0110718
C          -0.7267942    -0.8931425    -0.0159371
H          -1.1446142     0.0233321     0.3958045
C          -1.1741807    -2.1304693     0.4524570
H          -1.9368935    -2.1719549     1.2255082
26
378_C13H12O_21-0-3-10 (-15,) energy =    -577.8137284
C           0.6657304     0.5310457    -1.6224671
H           0.0503862     1.3233909    -1.1765109
H           0.4766284     0.5404275    -2.7019506
O           2.0492406     0.9293000    -1.5019637
C           4.9061298    -0.7592690     1.0234829
H           5.6702171    -1.1804750     1.6707268
C           3.6532090    -0.4234355     1.5396461
H           3.4398776    -0.5786740     2.5941844
C           2.6671389     0.1237353     0.7178185
H           1.7014866     0.3976405     1.1283349
C           2.9309792     0.3212659    -0.6431737
C           4.1866767    -0.0107980    -1.1641626
H           4.3730594     0.1636141    -2.2195530
C           5.1694084    -0.5438567    -0.3310499
H           6.1423282    -0.7964968    -0.7449092
C          -0.5791319    -3.2803234    -0.0152186
H          -0.9020737    -4.2398393     0.3797168
C           0.3979484    -3.2258993    -1.0130555
H           0.8363874    -4.1434067    -1.3962885
C           0.8079997    -1.9961045    -1.5235773
H           1.5668650    -1.9585853    -2.3009387
C           0.2581717    -0.8013389    -1.0372176
C          -0.7184290    -0.8675574    -0.0376731
H          -1.1556330     0.0524012     0.3448257
C          -1.1393348    -2.0986993     0.4697330
H          -1.9011765    -2.1325376     1.2439954
26
378_C13H12O_21-0-3-10 (0,) energy =    -577.8123677
C           0.6763732     0.5288809    -1.6684441
H          -0.0313390     1.3054288    -1.3563680
H           0.6304037     0.4615099    -2.7623346
O           2.0012268     1.0383935    -1.3744459
C           4.8769876    -0.8225571     1.0060768
H           5.6440790    -1.2856087     1.6205036
C           3.6453460    -0.4729633     1.5639755
H           3.4523440    -0.6603763     2.6171911
C           2.6573786     0.1286469     0.7841971
H           1.7074715     0.4157773     1.2220273
C           2.8965551     0.3694664    -0.5741256
C           4.1301581     0.0234541    -1.1358980
H           4.3000186     0.2336678    -2.1876790
C           5.1169786    -0.5656940    -0.3451815
H           6.0741445    -0.8276908    -0.7889023
C          -0.5271256    -3.2601958     0.0192299
H          -0.8374939    -4.2143638     0.4366400
C           0.4352509    -3.2176124    -0.9929368
H           0.8751712    -4.1390285    -1.3648567
C           0.8279978    -1.9943149    -1.5327020
H           1.5746121    -1.9663629    -2.3224073
C           0.2742803    -0.7946778    -1.0636031
C          -0.6889960    -0.8499883    -0.0495760
H          -1.1311226     0.0736634     0.3179367
C          -1.0913390    -2.0738193     0.4886146
H          -1.8438880    -2.0993733     1.2722264
26
378_C13H12O_21-0-3-10 (15,) energy =    -577.8137283
C           1.2474591    -1.9128972     1.6380896
H           1.2749748    -2.9482692     1.9962257
H           0.6831650    -1.3270194     2.3754370
O           2.6252612    -1.4817335     1.6962680
C           4.6512248     0.7415406    -1.1924537
H           5.2030929     1.3193730    -1.9284689
C           3.3882955     1.1615165    -0.7708613
H           2.9546755     2.0724993    -1.1755263
C           2.6741195     0.4295392     0.1784540
H           1.7006487     0.7700261     0.5138335
C           3.2220714    -0.7486431     0.7006088
C           4.4890747    -1.1714646     0.2832988
H           4.8994353    -2.0808425     0.7118150
C           5.2001400    -0.4249493    -0.6554557
H           6.1845673    -0.7606997    -0.9714503
C          -0.8392892    -1.7912428    -2.1421357
H          -1.3718907    -1.7709790    -3.0891586
C           0.3092461    -2.5749534    -2.0007949
H           0.6716527    -3.1660585    -2.8375648
C           0.9891237    -2.6056434    -0.7850765
H           1.8808767    -3.2180814    -0.6790162
C           0.5403453    -1.8450797     0.3042410
C          -0.6098159    -1.0635032     0.1510980
H          -0.9704245    -0.4722700     0.9902497
C          -1.2998925    -1.0375818    -1.0627645
H          -2.1933998    -0.4272995    -1.1639112
26
378_C13H12O_21-0-3-10 (30,) energy =    -577.8163064
C           1.2448932    -1.8644396     1.6151571
H           1.1604495    -2.8561933     2.0719629
H           0.7674546    -1.1492190     2.3004586
O           2.6622994    -1.6183417     1.6025400
C           4.6931031     0.7939618    -1.1258605
H           5.2471316     1.4159300    -1.8231412
C           3.4227245     1.1781064    -0.6949679
H           2.9841459     2.1059819    -1.0532020
C           2.7034621     0.3879927     0.2034801
H           1.7223986     0.7026964     0.5411672
C           3.2571368    -0.8123449     0.6646904
C           4.5331319    -1.2002803     0.2390161
H           4.9466645    -2.1293715     0.6193805
C           5.2459933    -0.3971130    -0.6487984
H           6.2360883    -0.7074641    -0.9728654
C          -0.8949774    -1.8608669    -2.1383140
H          -1.4418956    -1.8709762    -3.0772981
C           0.2578595    -2.6368460    -1.9893851
H           0.6092900    -3.2526766    -2.8129424
C           0.9569841    -2.6273151    -0.7841713
H           1.8530071    -3.2319666    -0.6711422
C           0.5227832    -1.8324221     0.2858271
C          -0.6309925    -1.0582282     0.1264262
H          -0.9788879    -0.4386156     0.9504888
C          -1.3401541    -1.0735644    -1.0766447
H          -2.2354011    -0.4668677    -1.1839373
26
378_C13H12O_21-0-3-10 (45,) energy =    -577.8193897
C           1.2462001    -1.7874398     1.5612041
H           1.0719690    -2.7145030     2.1171480
H           0.8769177    -0.9599240     2.1853238
O           2.6741038    -1.7212768     1.4698733
C           4.7672153     0.8616905    -1.0476580
H           5.3375788     1.5235853    -1.6929618
C           3.4808373     1.2121379    -0.6387022
H           3.0442758     2.1534753    -0.9626079
C           2.7376415     0.3694540     0.1912036
H           1.7411153     0.6595900     0.5033988
C           3.2883956    -0.8478247     0.6078348
C           4.5813229    -1.2036292     0.2036827
H           4.9903073    -2.1487862     0.5475824
C           5.3140318    -0.3504698    -0.6173154
H           6.3162627    -0.6370763    -0.9254586
C          -0.9927238    -1.9195594    -2.1328536
H          -1.5641924    -1.9634656    -3.0561032
C           0.1676541    -2.6847423    -1.9886395
H           0.5005909    -3.3264086    -2.8001377
C           0.8997788    -2.6309037    -0.8039745
H           1.8024715    -3.2256196    -0.6939143
C           0.4900239    -1.8016206     0.2484415
C          -0.6707858    -1.0370370     0.0945920
H          -0.9981705    -0.3887497     0.9051037
C          -1.4123808    -1.0972152    -1.0872054
H          -2.3120298    -0.4965099    -1.1916578
26
378_C13H12O_21-0-3-10 (60,) energy =    -577.8218979
C           1.2720606    -1.7297283     1.4681731
H           1.0475383    -2.5872146     2.1112539
H           1.0156208    -0.8221649     2.0345351
O           2.6849623    -1.8126958     1.2877636
C           4.9039502     0.9374562    -0.9278081
H           5.5076610     1.6392203    -1.4959322
C           3.5786880     1.2366854    -0.6178812
H           3.1421449     2.1771686    -0.9442451
C           2.7899090     0.3418179     0.1110704
H           1.7596868     0.5931431     0.3325230
C           3.3403330    -0.8740065     0.5312851
C           4.6730310    -1.1807584     0.2235852
H           5.0791385    -2.1277764     0.5658259
C           5.4461027    -0.2786949    -0.5003060
H           6.4782686    -0.5277917    -0.7328392
C          -1.1539296    -2.0013554    -2.0991913
H          -1.7722491    -2.0801839    -2.9893280
C           0.0290272    -2.7376961    -1.9986638
H           0.3333018    -3.3918671    -2.8114899
C           0.8225617    -2.6388457    -0.8564928
H           1.7434290    -3.2097575    -0.7790839
C           0.4495717    -1.7931451     0.1952731
C          -0.7340775    -1.0557180     0.0857984
H          -1.0319527    -0.3928771     0.8961179
C          -1.5354546    -1.1611061    -1.0526950
H          -2.4517542    -0.5810122    -1.1240089
26
378_C13H12O_21-0-3-10 (75,) energy =    -577.8231459
C           1.3069095    -1.6950703     1.3447184
H           1.0740423    -2.4888286     2.0633158
H           1.1517485    -0.7349319     1.8563959
O           2.6906278    -1.8888200     1.0653726
C           5.0551087     1.0131107    -0.7750372
H           5.6954882     1.7526211    -1.2469363
C           3.6926345     1.2573680    -0.6176749
H           3.2622380     2.1908363    -0.9712164
C           2.8557763     0.3133590    -0.0141032
H           1.7956069     0.5175185     0.0749804
C           3.3990211    -0.8931691     0.4409076
C           4.7689674    -1.1467324     0.2830303
H           5.1668847    -2.0892766     0.6464735
C           5.5871917    -0.1983346    -0.3212896
H           6.6480104    -0.4054368    -0.4362922
C          -1.3588884    -2.0883519    -2.0361712
H          -2.0363305    -2.1962846    -2.8789643
C          -0.1622644    -2.8078126    -2.0005298
H           0.0939930    -3.4779691    -2.8169334
C           0.7083927    -2.6710860    -0.9194595
H           1.6409196    -3.2268984    -0.8922023
C           0.3967442    -1.8056976     0.1353870
C          -0.8012921    -1.0838206     0.0911037
H          -1.0510537    -0.4041211     0.9038076
C          -1.6777998    -1.2263195    -0.9860157
H          -2.6039833    -0.6580166    -1.0077484
26
378_C13H12O_21-0-3-10 (90,) energy =    -577.8228766
C           1.3536023    -1.6238672     1.1791718
H           1.1429582    -2.3513794     1.9726130
H           1.2727708    -0.6238392     1.6240505
O           2.7020728    -1.8956303     0.8050550
C           5.2386620     1.0869030    -0.6316885
H           5.9207172     1.8475096    -1.0003579
C           3.8635620     1.3131432    -0.6320175
H           3.4665569     2.2519987    -1.0095015
C           2.9744737     0.3416622    -0.1625021
H           1.9063544     0.5231668    -0.2027085
C           3.4772426    -0.8707537     0.3231355
C           4.8583911    -1.1076716     0.3204355
H           5.2221815    -2.0569248     0.7015070
C           5.7297168    -0.1331867    -0.1560980
H           6.7994673    -0.3256896    -0.1503314
C          -1.5596697    -2.1874832    -1.9652027
H          -2.2991167    -2.3369782    -2.7473713
C          -0.3348667    -2.8557531    -2.0190199
H          -0.1179992    -3.5279002    -2.8451900
C           0.6159210    -2.6652878    -1.0156609
H           1.5707058    -3.1802068    -1.0576042
C           0.3544209    -1.7980035     0.0505057
C          -0.8727263    -1.1256264     0.0956124
H          -1.0842427    -0.4431606     0.9168674
C          -1.8271399    -1.3214658    -0.9035348
H          -2.7748462    -0.7914174    -0.8566038
26
378_C13H12O_21-0-3-10 (105,) energy =    -577.8215269
C           1.3112992    -1.5392958     1.0385993
H           1.1371922    -2.1904376     1.9056452
H           1.2647179    -0.5045958     1.3977871
O           2.6298039    -1.8578625     0.5952189
C           5.3759289     1.1132503    -0.4150817
H           6.1091898     1.8707625    -0.6762001
C           4.0134578     1.3709082    -0.5627744
H           3.6793417     2.3301414    -0.9497470
C           3.0617053     0.4025607    -0.2331644
H           2.0067329     0.6027755    -0.3892309
C           3.4843503    -0.8357573     0.2643133
C           4.8509712    -1.1041919     0.4084105
H           5.1527463    -2.0735387     0.7929089
C           5.7880773    -0.1327301     0.0666500
H           6.8468062    -0.3482073     0.1852435
C          -1.7810069    -2.3379322    -1.8753872
H          -2.5651191    -2.5441328    -2.5989816
C          -0.5097870    -2.8898585    -2.0394633
H          -0.3003734    -3.5286387    -2.8936078
C           0.4990034    -2.6259125    -1.1110519
H           1.4892702    -3.0511383    -1.2379117
C           0.2470504    -1.8020755    -0.0098365
C          -1.0289500    -1.2461445     0.1468054
H          -1.2347252    -0.5980350     0.9969846
C          -2.0386158    -1.5142395    -0.7773514
H          -3.0234325    -1.0740499    -0.6441771
26
378_C13H12O_21-0-3-10 (120,) energy =    -577.8201238
C           1.2782708    -1.2757427     0.8895619
H           1.1039825    -1.7071440     1.8848479
H           1.2627998    -0.1855251     1.0078933
O           2.5734697    -1.7095723     0.4759425
C           5.6393669     0.9923452    -0.3573788
H           6.4530536     1.6782150    -0.5746628
C           4.3285931     1.3227581    -0.7027085
H           4.1177545     2.2657317    -1.2005042
C           3.2762252     0.4456973    -0.4315924
H           2.2655048     0.6964185    -0.7388972
C           3.5405871    -0.7713174     0.2081981
C           4.8536030    -1.1117614     0.5516762
H           5.0327686    -2.0636430     1.0418226
C           5.8956025    -0.2325565     0.2645130
H           6.9124308    -0.5034684     0.5365630
C          -1.8851153    -2.5109479    -1.7850506
H          -2.6865759    -2.8147859    -2.4530801
C          -0.5535125    -2.6527061    -2.1741939
H          -0.3122895    -3.0696434    -3.1486140
C           0.4781069    -2.2634242    -1.3159441
H           1.5147944    -2.3826594    -1.6125887
C           0.1858294    -1.7291040    -0.0586567
C          -1.1537342    -1.5949885     0.3300767
H          -1.3936290    -1.1879758     1.3109755
C          -2.1829084    -1.9799628    -0.5271190
H          -3.2174036    -1.8699338    -0.2123390
26
378_C13H12O_21-0-3-10 (135,) energy =    -577.8201129
C           1.0618614    -1.0542186     0.6376068
H           0.8428248    -1.2656035     1.6946156
H           0.9915466     0.0309938     0.4990201
O           2.3822856    -1.5081737     0.3475643
C           5.6283629     1.0802863    -0.0367955
H           6.4878032     1.7351047    -0.1469986
C           4.5554802     1.4547226     0.7702946
H           4.5783736     2.4028889     1.3013002
C           3.4459521     0.6182764     0.9212880
H           2.6355487     0.9129173     1.5798098
C           3.4062779    -0.6047364     0.2409711
C           4.4855593    -0.9898179    -0.5653191
H           4.4350306    -1.9445006    -1.0795562
C           5.5877673    -0.1507110    -0.6988218
H           6.4173489    -0.4574300    -1.3305158
C          -1.8904631    -2.9918063    -1.8559297
H          -2.6407636    -3.4760773    -2.4751895
C          -0.6080247    -3.5316515    -1.7531529
H          -0.3558846    -4.4406985    -2.2931513
C           0.3582824    -2.9107536    -0.9589435
H           1.3571387    -3.3259668    -0.8818115
C           0.0516558    -1.7381018    -0.2627918
C          -1.2364046    -1.1993300    -0.3712821
H          -1.4849141    -0.2833798     0.1619078
C          -2.2029247    -1.8215650    -1.1606809
H          -3.1968130    -1.3886467    -1.2386643
26
378_C13H12O_21-0-3-10 (150,) energy =    -577.8214934
C           1.0819959    -0.9695943     0.4260390
H           0.9452805    -1.1170256     1.5086441
H           0.9848684     0.1057092     0.2278162
O           2.3783680    -1.4217964     0.0485758
C           5.7214766     1.0654401     0.1465121
H           6.6059512     1.6955724     0.1581206
C           4.5956238     1.4179036     0.8876163
H           4.6001073     2.3241485     1.4878162
C           3.4514528     0.6141663     0.8817144
H           2.5957100     0.8943724     1.4862576
C           3.4349185    -0.5546285     0.1112976
C           4.5677028    -0.9181061    -0.6304126
H           4.5325611    -1.8306069    -1.2174320
C           5.7005871    -0.1114216    -0.6094454
H           6.5713809    -0.4007161    -1.1920052
C          -2.0061999    -3.0892547    -1.7287130
H          -2.7905042    -3.6186994    -2.2630219
C          -0.7087676    -3.6012016    -1.6951923
H          -0.4785904    -4.5335110    -2.2044295
C           0.3011782    -2.9224515    -1.0101442
H           1.3111105    -3.3166782    -0.9883921
C           0.0230234    -1.7190468    -0.3554023
C          -1.2802944    -1.2082463    -0.3944716
H          -1.5073603    -0.2689949     0.1066942
C          -2.2899014    -1.8885212    -1.0743163
H          -3.2956061    -1.4771938    -1.0991597
26
378_C13H12O_21-0-3-10 (165,) energy =    -577.8228030
C           1.0584187    -0.9816120     0.3114226
H           1.0911291    -1.2214347     1.3861447
H           0.8701554     0.0966758     0.2212101
O           2.3099168    -1.3135196    -0.2849894
C           5.7247954     0.9934344     0.3382934
H           6.6282239     1.5791320     0.4808507
C           4.5925107     1.2436972     1.1096121
H           4.6095349     2.0267450     1.8633530
C           3.4230665     0.4961339     0.9351953
H           2.5596190     0.7004857     1.5581448
C           3.3907424    -0.5145469    -0.0329092
C           4.5295546    -0.7737983    -0.8098020
H           4.4798828    -1.5632117    -1.5533802
C           5.6847735    -0.0234641    -0.6221647
H           6.5599379    -0.2316211    -1.2321801
C          -2.1341845    -3.1953206    -1.5713547
H          -2.9430494    -3.7536418    -2.0350333
C          -0.8712446    -3.7747804    -1.4301247
H          -0.6945658    -4.7869531    -1.7846092
C           0.1679605    -3.0605808    -0.8341870
H           1.1517640    -3.5072251    -0.7310354
C          -0.0416874    -1.7528255    -0.3801539
C          -1.3068404    -1.1756186    -0.5314359
H          -1.4784311    -0.1563836    -0.1914140
C          -2.3499934    -1.8930409    -1.1192789
H          -3.3267980    -1.4301870    -1.2321253
26
378_C13H12O_21-0-3-10 (180,) energy =    -577.8234887
C           1.0934668    -0.7165656     0.1717258
H           1.2512677    -0.9592352     1.2343803
H           0.8183616     0.3458867     0.1138318
O           2.3003160    -0.9542890    -0.5490866
C           5.8477816     1.0127821     0.4104838
H           6.7852982     1.5110754     0.6391935
C           4.7022528     1.2910851     1.1516304
H           4.7416080     2.0107799     1.9653244
C           3.4882284     0.6564926     0.8669554
H           2.6111710     0.8922405     1.4586199
C           3.4266112    -0.2724241    -0.1784931
C           4.5776374    -0.5559937    -0.9289822
H           4.5037370    -1.2786498    -1.7357885
C           5.7758536     0.0835681    -0.6335926
H           6.6605680    -0.1442691    -1.2224538
C          -2.0792553    -3.1834370    -1.4011761
H          -2.8818255    -3.8068363    -1.7862293
C          -0.7900444    -3.7038826    -1.2626804
H          -0.5874283    -4.7348268    -1.5408997
C           0.2403541    -2.9061336    -0.7671078
H           1.2443467    -3.3070271    -0.6667776
C          -0.0041325    -1.5736818    -0.4117988
C          -1.2947721    -1.0566693    -0.5611443
H          -1.4924354    -0.0196498    -0.2983102
C          -2.3298304    -1.8573481    -1.0481441
H          -3.3274906    -1.4411390    -1.1600202
