17
359_C8H8O_0-4-11-9 (-165,) energy =    -384.8953840
C           1.4719586    -1.7301511    -0.2565416
H           1.7732102    -2.0823110     0.7369505
H           1.9625255    -2.3771675    -0.9941084
H           0.3902148    -1.8227285    -0.3668576
C           1.8582575    -0.2728984    -0.4555535
C           5.9262919     0.9854682     0.1526228
H           6.9486378     1.3177741     0.3125006
C           4.8896948     1.9210290     0.0787571
H           5.1048963     2.9809326     0.1841024
C           3.5814715     1.4950192    -0.1288201
H           2.7616698     2.2028951    -0.1960395
C           3.2904004     0.1280419    -0.2603916
C           4.3348607    -0.8044582    -0.1732572
H           4.1304553    -1.8668320    -0.2662245
C           5.6476547    -0.3764884     0.0241487
H           6.4515948    -1.1052803     0.0805044
O           1.0103274     0.5623437    -0.7305183
17
359_C8H8O_0-4-11-9 (-150,) energy =    -384.8937745
C           1.4555691    -1.6977052    -0.1563439
H           1.7020056    -1.8747386     0.8970975
H           1.9713070    -2.4683651    -0.7423122
H           0.3793586    -1.7984805    -0.3076504
C           1.8806415    -0.2983111    -0.5722682
C           5.9178657     0.9801771     0.1843148
H           6.9312280     1.3160024     0.3878509
C           4.8665290     1.9011397     0.1625955
H           5.0603344     2.9530955     0.3539992
C           3.5695383     1.4710419    -0.1035124
H           2.7414310     2.1719106    -0.1366620
C           3.3055508     0.1137507    -0.3431776
C           4.3629357    -0.8067515    -0.2982735
H           4.1764446    -1.8627804    -0.4706803
C           5.6652160    -0.3727219    -0.0509662
H           6.4810529    -1.0902881    -0.0362413
O           1.0657389     0.5004877    -1.0066298
17
359_C8H8O_0-4-11-9 (-135,) energy =    -384.8914146
C           1.4230719    -1.6268953    -0.0757690
H           1.4837981    -1.5581233     1.0175210
H           2.0453041    -2.4782121    -0.3747878
H           0.3885665    -1.8078145    -0.3741202
C           1.8996464    -0.3191342    -0.6858097
C           5.9070593     0.9761356     0.1978136
H           6.9119834     1.3140762     0.4363812
C           4.8372004     1.8738734     0.2450112
H           5.0074462     2.9098429     0.5253621
C           3.5506016     1.4422349    -0.0687359
H           2.7121084     2.1317845    -0.0535079
C           3.3169791     0.1048885    -0.4218512
C           4.3913047    -0.7958380    -0.4411751
H           4.2261639    -1.8373659    -0.7030231
C           5.6835001    -0.3568623    -0.1523044
H           6.5140251    -1.0563717    -0.1933460
O           1.1285916     0.4238818    -1.2704863
17
359_C8H8O_0-4-11-9 (-120,) energy =    -384.8886096
C           1.4162750    -1.5719129     0.0167261
H           1.3724366    -1.2949699     1.0777092
H           2.0756995    -2.4448720    -0.0526805
H           0.4155827    -1.8316049    -0.3351549
C           1.9475238    -0.3899137    -0.7755918
C           5.9119080     0.9532707     0.2325345
H           6.9061586     1.2988540     0.5025073
C           4.8190054     1.8170208     0.3362418
H           4.9602742     2.8342526     0.6913975
C           3.5446578     1.3773286    -0.0185305
H           2.6920375     2.0477277     0.0404914
C           3.3504986     0.0652183    -0.4711248
C           4.4457662    -0.8058705    -0.5433839
H           4.3046367    -1.8306971    -0.8777603
C           5.7247793    -0.3562929    -0.2142823
H           6.5730587    -1.0302761    -0.2981106
O           1.2343563     0.2456264    -1.5319749
17
359_C8H8O_0-4-11-9 (-105,) energy =    -384.8859150
C           1.3682635    -1.4833817     0.0808003
H           1.2443194    -1.0293938     1.0723683
H           2.0245989    -2.3516378     0.2149971
H           0.3961008    -1.8019285    -0.3020698
C           1.9869888    -0.4625273    -0.8565333
C           5.9090429     0.9465178     0.2462744
H           6.8941713     1.3046048     0.5326311
C           4.7904875     1.7648115     0.4170133
H           4.9021490     2.7600517     0.8389022
C           3.5260495     1.3092854     0.0434776
H           2.6568328     1.9509313     0.1611810
C           3.3710375     0.0282079    -0.5003897
C           4.4918946    -0.7982281    -0.6464048
H           4.3778291    -1.8000336    -1.0538621
C           5.7586048    -0.3335447    -0.2902899
H           6.6263087    -0.9735704    -0.4259717
O           1.3746555     0.0082727    -1.7966457
17
359_C8H8O_0-4-11-9 (-90,) energy =    -384.8847598
C           1.2710910    -1.3638699     0.1259319
H           1.1159389    -0.7725749     1.0372086
H           1.8642295    -2.2389254     0.4203940
H           0.3088346    -1.6846499    -0.2795828
C           2.0264798    -0.5466414    -0.9046576
C           5.9048770     0.9572477     0.2416441
H           6.8822011     1.3387915     0.5243137
C           4.7590793     1.7148678     0.4906489
H           4.8417038     2.6891591     0.9649255
C           3.5031919     1.2258408     0.1286719
H           2.6136892     1.8216982     0.3183102
C           3.3855766    -0.0255916    -0.4873561
C           4.5368686    -0.7815702    -0.7372038
H           4.4532578    -1.7505410    -1.2232757
C           5.7915519    -0.2907173    -0.3736760
H           6.6805732    -0.8826941    -0.5741865
O           1.5779903    -0.3181013    -2.0114061
17
359_C8H8O_0-4-11-9 (-75,) energy =    -384.8860894
C           1.1775453    -1.2376601     0.1706781
H           1.0160144    -0.5266076     0.9899368
H           1.6751434    -2.1120372     0.6099573
H           0.2203810    -1.5388349    -0.2609146
C           2.0743369    -0.6511134    -0.9031006
C           5.9041278     0.9785966     0.2148280
H           6.8728549     1.3944127     0.4782791
C           4.7348773     1.6639945     0.5483584
H           4.7904130     2.6192955     1.0633712
C           3.4902535     1.1256455     0.2182800
H           2.5822765     1.6635964     0.4807807
C           3.4075554    -0.1002867    -0.4529539
C           4.5845856    -0.7677500    -0.8147535
H           4.5230006    -1.6997681    -1.3701000
C           5.8266994    -0.2387145    -0.4657229
H           6.7349873    -0.7706009    -0.7360347
O           1.7867310    -0.6950209    -2.0845178
17
359_C8H8O_0-4-11-9 (-60,) energy =    -384.8888733
C           1.1178168    -1.1296688     0.1656127
H           0.9092043    -0.2967060     0.8471257
H           1.5364927    -1.9388176     0.7778712
H           0.1916502    -1.4691085    -0.3030455
C           2.1300575    -0.7550470    -0.9020858
C           5.9028283     0.9922185     0.2103244
H           6.8595166     1.4378297     0.4693074
C           4.7151283     1.6018836     0.6173824
H           4.7438048     2.5295282     1.1825747
C           3.4868932     1.0224899     0.2959968
H           2.5652129     1.5020625     0.6163238
C           3.4381266    -0.1673681    -0.4420704
C           4.6338362    -0.7499620    -0.8853445
H           4.5905795    -1.6448690    -1.4992306
C           5.8601302    -0.1862284    -0.5396331
H           6.7832281    -0.6568472    -0.8671583
O           1.9505845    -1.0200630    -2.0776828
17
359_C8H8O_0-4-11-9 (-45,) energy =    -384.8916188
C           1.0756909    -1.0307633     0.1558190
H           0.8053105    -0.0897747     0.6482533
H           1.4272070    -1.7106164     0.9422212
H           0.1943382    -1.4570763    -0.3273423
C           2.1782464    -0.8515822    -0.8741247
C           5.9061269     1.0036199     0.2080007
H           6.8531505     1.4729226     0.4608444
C           4.7106556     1.5418352     0.6867554
H           4.7233318     2.4372958     1.3021520
C           3.4953991     0.9321749     0.3729114
H           2.5702630     1.3598653     0.7494537
C           3.4657344    -0.2168564    -0.4297295
C           4.6693318    -0.7267134    -0.9398551
H           4.6329290    -1.5899092    -1.5971998
C           5.8835564    -0.1336595    -0.6046828
H           6.8126755    -0.5488577    -0.9856819
O           2.0702305    -1.3040818    -2.0019028
17
359_C8H8O_0-4-11-9 (-30,) energy =    -384.8938723
C           1.0394442    -0.9475324     0.1204509
H           0.6602537     0.0669919     0.2941012
H           1.3457051    -1.3484717     1.0938153
H           0.2367786    -1.5582807    -0.2966850
C           2.2124943    -0.9499562    -0.8469496
C           5.9011410     1.0062638     0.1874978
H           6.8385366     1.4991872     0.4312868
C           4.7061944     1.4654894     0.7441157
H           4.7099600     2.3213345     1.4135912
C           3.5036549     0.8273004     0.4393570
H           2.5799654     1.1920177     0.8792439
C           3.4853817    -0.2726981    -0.4304562
C           4.6883874    -0.7076720    -1.0080115
H           4.6551024    -1.5387709    -1.7052156
C           5.8906031    -0.0836011    -0.6883317
H           6.8195193    -0.4388322    -1.1262364
O           2.1477328    -1.5497940    -1.9083892
17
359_C8H8O_0-4-11-9 (-15,) energy =    -384.8954125
C           1.0071933    -0.8557563     0.0983891
H           0.6432661     0.1786431     0.0678613
H           1.2289846    -1.0922689     1.1455817
H           0.2222888    -1.5182051    -0.2704170
C           2.2411745    -1.0311254    -0.7728347
C           5.8956578     1.0246568     0.1888223
H           6.8254807     1.5389315     0.4172342
C           4.7104718     1.4120878     0.8165348
H           4.7147875     2.2314729     1.5301071
C           3.5181631     0.7481962     0.5275106
H           2.6028295     1.0579522     1.0228175
C           3.4999140    -0.3077967    -0.3957462
C           4.6944450    -0.6790039    -1.0330441
H           4.6606775    -1.4859234    -1.7578821
C           5.8854513    -0.0237785    -0.7363889
H           6.8070046    -0.3246403    -1.2273185
O           2.2172121    -1.7755613    -1.7410172
17
359_C8H8O_0-4-11-9 (0,) energy =    -384.8959363
C           0.9786578    -0.7852561     0.0297025
H           0.6862722     0.2590921    -0.1329118
H           1.0935037    -0.9275339     1.1109397
H           0.1895138    -1.4424875    -0.3391550
C           2.2680413    -1.1137083    -0.7063445
C           5.8882812     1.0383143     0.1723613
H           6.8101393     1.5735827     0.3841999
C           4.7194919     1.3619781     0.8636515
H           4.7292152     2.1482795     1.6134966
C           3.5358777     0.6754717     0.5925884
H           2.6337695     0.9371467     1.1370774
C           3.5103076    -0.3418210    -0.3732560
C           4.6917615    -0.6588393    -1.0623999
H           4.6546709    -1.4481458    -1.8061094
C           5.8722629     0.0257901    -0.7921093
H           6.7816243    -0.2267048    -1.3307425
O           2.2895877    -1.9925644    -1.5548580
17
359_C8H8O_0-4-11-9 (15,) energy =    -384.8954125
C           0.9617937    -0.7236388    -0.0391214
H           0.7465049     0.3129225    -0.3235789
H           0.9675649    -0.7663766     1.0570112
H           0.1746981    -1.3796023    -0.4148000
C           2.2928164    -1.1812769    -0.6148530
C           5.8839059     1.0593754     0.1522697
H           6.8000541     1.6134047     0.3391916
C           4.7415153     1.3225772     0.9102193
H           4.7679647     2.0774882     1.6912487
C           3.5640041     0.6154997     0.6665653
H           2.6814928     0.8296006     1.2619294
C           3.5197218    -0.3647463    -0.3359256
C           4.6786090    -0.6325991    -1.0816557
H           4.6333549    -1.4061222    -1.8414367
C           5.8497936     0.0804605    -0.8456922
H           6.7391544    -0.1267950    -1.4346541
O           2.3546702    -2.1760291    -1.3210777
17
359_C8H8O_0-4-11-9 (30,) energy =    -384.8938723
C           0.9551249    -0.7016403    -0.1362187
H           0.7882443     0.2754514    -0.6046512
H           0.8749310    -0.5576034     0.9482265
H           0.1838304    -1.4039099    -0.4574817
C           2.3164936    -1.2527966    -0.5296891
C           5.8834634     1.0581306     0.1331254
H           6.7948321     1.6269386     0.2973852
C           4.7777122     1.2578814     0.9613891
H           4.8293921     1.9744419     1.7765902
C           3.6041629     0.5351697     0.7452178
H           2.7493305     0.6996322     1.3947825
C           3.5287518    -0.3988281    -0.2982716
C           4.6560293    -0.6135519    -1.1064402
H           4.5946757    -1.3631172    -1.8889461
C           5.8200602     0.1218172    -0.9033555
H           6.6818775    -0.0382148    -1.5456128
O           2.4170353    -2.3344014    -1.0870722
17
359_C8H8O_0-4-11-9 (45,) energy =    -384.8916188
C           0.9501842    -0.6649424    -0.2263544
H           0.7979318     0.1227280    -0.9750775
H           0.8407947    -0.1928994     0.7566363
H           0.1872847    -1.4363206    -0.3485362
C           2.3252601    -1.2796788    -0.4258019
C           5.8804453     1.0788236     0.1291994
H           6.7901460     1.6569142     0.2680681
C           4.8240335     1.2123731     1.0315229
H           4.9135412     1.8843752     1.8807138
C           3.6509224     0.4798611     0.8463948
H           2.8349054     0.5900125     1.5553104
C           3.5282970    -0.3988743    -0.2390435
C           4.6109563    -0.5568437    -1.1175229
H           4.5239057    -1.2727701    -1.9289461
C           5.7710604     0.1939239    -0.9475340
H           6.5959590     0.0820033    -1.6459804
O           2.4544588    -2.4233007    -0.8304519
17
359_C8H8O_0-4-11-9 (60,) energy =    -384.8888733
C           0.9539403    -0.6521110    -0.3334674
H           0.8780217    -0.0208530    -1.2282417
H           0.8048683     0.0077114     0.5292138
H           0.1732663    -1.4153673    -0.3586081
C           2.3212586    -1.3117992    -0.3191644
C           5.8732024     1.0788992     0.1195274
H           6.7821838     1.6635239     0.2329336
C           4.8691867     1.1538990     1.0861435
H           4.9992850     1.7864661     1.9600556
C           3.6963275     0.4131374     0.9337605
H           2.9177534     0.4761600     1.6900306
C           3.5230058    -0.4143567    -0.1834218
C           4.5543400    -0.5185221    -1.1274177
H           4.4371887    -1.1985209    -1.9661446
C           5.7127054     0.2431390    -0.9889590
H           6.4976625     0.1746087    -1.7372973
O           2.4603301    -2.5047955    -0.5238377
17
359_C8H8O_0-4-11-9 (75,) energy =    -384.8860894
C           0.9721313    -0.6391583    -0.4549409
H           1.0026267    -0.1533010    -1.4388710
H           0.7825655     0.1538617     0.2785828
H           0.1636065    -1.3733012    -0.4334071
C           2.3040698    -1.3200622    -0.2027832
C           5.8686734     1.0822505     0.1062683
H           6.7777109     1.6719730     0.1876326
C           4.9285266     1.1007124     1.1377444
H           5.1075015     1.6968122     2.0285617
C           3.7565884     0.3505889     1.0294114
H           3.0271575     0.3687831     1.8358354
C           3.5200504    -0.4276910    -0.1101652
C           4.4818940    -0.4687514    -1.1275037
H           4.3178386    -1.1026380    -1.9947604
C           5.6425450     0.2976227    -1.0269645
H           6.3766732     0.2727204    -1.8278354
O           2.4170631    -2.5308739    -0.1632920
17
359_C8H8O_0-4-11-9 (90,) energy =    -384.8847598
C           1.0310556    -0.6645778    -0.6051555
H           1.1937171    -0.2861013    -1.6222788
H           0.7801334     0.2059425     0.0140048
H           0.2034284    -1.3775214    -0.6002355
C           2.2942532    -1.3263493    -0.0884548
C           5.8540070     1.1057962     0.0861178
H           6.7538447     1.7130713     0.1324799
C           4.9846777     1.0585311     1.1773907
H           5.2069748     1.6263346     2.0769416
C           3.8283463     0.2794809     1.1190254
H           3.1570534     0.2400588     1.9734466
C           3.5347735    -0.4598719    -0.0327470
C           4.4097949    -0.4115412    -1.1242609
H           4.1920978    -0.9902951    -2.0185834
C           5.5651138     0.3687774    -1.0637615
H           6.2407112     0.3981404    -1.9144705
O           2.3238469    -2.4902894     0.2617358
17
359_C8H8O_0-4-11-9 (105,) energy =    -384.8859150
C           1.0954243    -0.6885877    -0.7502192
H           1.3686943    -0.4414204    -1.7831205
H           0.8036900     0.2543615    -0.2702070
H           0.2522866    -1.3829727    -0.7397331
C           2.2694585    -1.2850077     0.0044237
C           5.8528943     1.1104356     0.0746693
H           6.7512254     1.7213655     0.0963533
C           5.0521497     1.0034312     1.2136513
H           5.3239012     1.5327104     2.1230335
C           3.9023320     0.2140151     1.1896224
H           3.2867322     0.1172522     2.0800015
C           3.5427175    -0.4715420     0.0227172
C           4.3349631    -0.3412227    -1.1244535
H           4.0543403    -0.8582300    -2.0391121
C           5.4953098     0.4333022    -1.0926851
H           6.1158976     0.5127472    -1.9812297
O           2.1737738    -2.3189159     0.6386903
17
359_C8H8O_0-4-11-9 (120,) energy =    -384.8886096
C           1.1316368    -0.7427957    -0.8502133
H           1.4723119    -0.6876811    -1.8907029
H           0.8339685     0.2736510    -0.5629255
H           0.2712212    -1.4110726    -0.7744761
C           2.2304620    -1.2137253     0.0867622
C           5.8620125     1.0989785     0.0799821
H           6.7699318     1.6960418     0.0867072
C           5.1200614     0.9409065     1.2529176
H           5.4467584     1.4183716     2.1727812
C           3.9602131     0.1676830     1.2472782
H           3.3874197     0.0233349     2.1588435
C           3.5263548    -0.4466803     0.0646971
C           4.2579301    -0.2588366    -1.1156167
H           3.9222533    -0.7173357    -2.0424902
C           5.4333503     0.4925058    -1.1024134
H           6.0092069     0.6117015    -2.0162187
O           2.0361813    -2.0893314     0.9115068
17
359_C8H8O_0-4-11-9 (135,) energy =    -384.8914146
C           1.1506730    -0.8334486    -0.9053931
H           1.5393889    -1.0049540    -1.9157450
H           0.8713096     0.2259998    -0.8485999
H           0.2671227    -1.4540238    -0.7436156
C           2.1805106    -1.1368710     0.1701909
C           5.8760508     1.0668342     0.1028203
H           6.8013296     1.6367740     0.0985221
C           5.1835847     0.8657311     1.2998194
H           5.5662739     1.2832401     2.2272072
C           4.0019718     0.1282790     1.3062043
H           3.4619624    -0.0512661     2.2308312
C           3.4927254    -0.4066697     0.1136175
C           4.1792042    -0.1781057    -1.0873664
H           3.7933428    -0.5770650    -2.0214747
C           5.3761718     0.5382607    -1.0888909
H           5.9143508     0.6899622    -2.0206201
O           1.9121280    -1.8577212     1.1171812
17
359_C8H8O_0-4-11-9 (150,) energy =    -384.8937745
C           1.1838847    -0.9063722    -0.9837598
H           1.5956620    -1.3745619    -1.8862558
H           1.0070682     0.1494014    -1.2201679
H           0.2402123    -1.3931198    -0.7310987
C           2.1331310    -1.0333837     0.1972494
C           5.8913433     1.0578086     0.1029891
H           6.8348785     1.5970316     0.0935817
C           5.2450117     0.7995065     1.3152138
H           5.6825919     1.1417391     2.2491343
C           4.0391250     0.1040336     1.3269320
H           3.5276168    -0.1169539     2.2583833
C           3.4597221    -0.3349572     0.1265373
C           4.1040725    -0.0528067    -1.0869730
H           3.6655947    -0.3751943    -2.0269219
C           5.3220100     0.6269043    -1.0968884
H           5.8233542     0.8250542    -2.0403389
O           1.7940878    -1.6203191     1.2128144
17
359_C8H8O_0-4-11-9 (165,) energy =    -384.8953840
C           1.2209872    -0.9991673    -1.0208208
H           1.6978808    -1.6066675    -1.7997988
H           1.0582430     0.0000923    -1.4412851
H           0.2616066    -1.4480748    -0.7581789
C           2.0831268    -0.9275034     0.2297782
C           5.9108037     1.0309591     0.1049237
H           6.8754470     1.5313419     0.0888105
C           5.2991042     0.7293140     1.3256193
H           5.7862094     0.9975588     2.2592028
C           4.0654478     0.0861041     1.3454667
H           3.5745975    -0.1638551     2.2804896
C           3.4237448    -0.2599908     0.1458434
C           4.0391115     0.0569377    -1.0743723
H           3.5568664    -0.1964873    -2.0136690
C           5.2807623     0.6921347    -1.0939574
H           5.7544754     0.9248883    -2.0437232
O           1.6741343    -1.3704316     1.2922095
17
359_C8H8O_0-4-11-9 (180,) energy =    -384.8959363
C           1.4771995    -1.7409665    -0.3568678
H           1.7854156    -2.2392348     0.5701129
H           1.9808044    -2.2528401    -1.1856632
H           0.3968108    -1.8372025    -0.4762968
C           1.8330809    -0.2628996    -0.3284358
C           5.9267949     0.9850792     0.1122093
H           6.9564717     1.3147730     0.2230377
C           4.8992995     1.9261202    -0.0075679
H           5.1295217     2.9879618     0.0100138
C           3.5816181     1.5030504    -0.1493068
H           2.7675801     2.2142947    -0.2439056
C           3.2713108     0.1339701    -0.1735217
C           4.3086318    -0.8029143    -0.0527058
H           4.0913638    -1.8665256    -0.0690528
C           5.6298462    -0.3787432     0.0894452
H           6.4263792    -1.1119065     0.1823572
O           0.9601440     0.5858940    -0.4302423
