17
361_C8H7FO_0-4-11-9 (-165,) energy =    -484.1279479
C           1.2888251    -1.2789630    -1.0995415
H           1.9656361    -1.9484403    -1.6405529
H           1.0288505    -0.4694701    -1.7901259
H           0.3837910    -1.8134555    -0.8053512
C           1.9432230    -0.7266830     0.1516382
C           5.9113386     0.9931698     0.1177682
H           6.9108699     1.4186561     0.1280885
C           5.2856880     0.6292045     1.3148169
H           5.7974284     0.7675597     2.2624709
C           4.0055813     0.0886089     1.2873784
H           3.4940022    -0.1955445     2.2011042
C           3.3150963    -0.1109243     0.0784474
C           3.9781567     0.2601276    -1.0971765
F           3.3752125     0.0981860    -2.2977945
C           5.2546421     0.8111575    -1.0975339
H           5.7084806     1.0855436    -2.0440637
O           1.3838623    -0.8116784     1.2340927
17
361_C8H7FO_0-4-11-9 (-150,) energy =    -484.1266369
C           1.5675071    -1.8640626    -0.1744531
H           1.9397646    -2.0770606     0.8332897
H           1.9975436    -2.6215603    -0.8384966
H           0.4785771    -1.9363006    -0.2003105
C           1.9665779    -0.4713948    -0.6240783
C           5.9227390     1.0658765     0.1867426
H           6.9094940     1.4663940     0.4012955
C           4.8182438     1.9190171     0.0994060
H           4.9403426     2.9873260     0.2505703
C           3.5609438     1.3948059    -0.1821736
H           2.6908950     2.0378654    -0.2676476
C           3.3682905     0.0160902    -0.3732369
C           4.4946178    -0.8057627    -0.2635367
F           4.3701491    -2.1428946    -0.4333426
C           5.7645283    -0.3066257    -0.0000546
H           6.6010786    -0.9952669     0.0558397
O           1.1473780     0.2889663    -1.1143848
17
361_C8H7FO_0-4-11-9 (-135,) energy =    -484.1245572
C           1.5393149    -1.7903551    -0.0813691
H           1.6945397    -1.7396479     1.0034828
H           2.1283306    -2.6358523    -0.4485045
H           0.4810688    -1.9485873    -0.2975569
C           1.9846720    -0.4907515    -0.7229576
C           5.9102214     1.0593797     0.2076493
H           6.8894852     1.4584267     0.4563596
C           4.7900531     1.8949957     0.1897250
H           4.8921314     2.9490346     0.4297192
C           3.5417986     1.3729176    -0.1386727
H           2.6630034     2.0093139    -0.1730893
C           3.3779611     0.0121351    -0.4432359
C           4.5181805    -0.7946758    -0.4011111
F           4.4158783    -2.1139940    -0.6907691
C           5.7782673    -0.2953614    -0.0961530
H           6.6286838    -0.9691204    -0.1002231
O           1.2100267     0.2072568    -1.3545156
17
361_C8H7FO_0-4-11-9 (-120,) energy =    -484.1223036
C           1.5538834    -1.7419008    -0.0232091
H           1.4538011    -1.4315463     1.0251356
H           2.2744616    -2.5646587    -0.0500587
H           0.5825466    -2.0727088    -0.3969257
C           2.0368587    -0.5576381    -0.8368539
C           5.9145759     1.0355525     0.2067623
H           6.8841986     1.4390670     0.4840332
C           4.7748446     1.8420805     0.2607816
H           4.8522218     2.8753492     0.5855356
C           3.5359006     1.3193670    -0.1056446
H           2.6445652     1.9394705    -0.0829443
C           3.4096772    -0.0133385    -0.5227697
C           4.5659836    -0.7939927    -0.5469696
F           4.4767441    -2.0883286    -0.9387680
C           5.8157725    -0.2937136    -0.2056358
H           6.6823899    -0.9438760    -0.2652258
O           1.3121104     0.0299976    -1.6185088
17
361_C8H7FO_0-4-11-9 (-105,) energy =    -484.1197609
C           1.4434943    -1.5645227     0.1261265
H           1.3271965    -1.0962473     1.1116618
H           2.1270115    -2.4122820     0.2510946
H           0.4734927    -1.9128149    -0.2352836
C           2.0248043    -0.5570430    -0.8442895
C           5.8971745     1.0078305     0.2665776
H           6.8706584     1.3953749     0.5527899
C           4.7590051     1.8092135     0.3825004
H           4.8424540     2.8223933     0.7641656
C           3.5118980     1.3093005     0.0060017
H           2.6245478     1.9316897     0.0828325
C           3.3850385     0.0068667    -0.4915964
C           4.5364752    -0.7735037    -0.5700406
F           4.4200868    -2.0487797    -1.0141710
C           5.7916871    -0.2977459    -0.2157496
H           6.6558195    -0.9462163    -0.3161905
O           1.4085762    -0.1387728    -1.8043702
17
361_C8H7FO_0-4-11-9 (-90,) energy =    -484.1180282
C           1.3017508    -1.3858138     0.2035799
H           1.1634292    -0.7834229     1.1098126
H           1.9129262    -2.2518499     0.4883473
H           0.3348515    -1.7231730    -0.1762147
C           2.0268429    -0.5840510    -0.8562331
C           5.8724768     1.0440112     0.2693288
H           6.8434682     1.4459644     0.5437764
C           4.7154795     1.7987130     0.4739982
H           4.7821116     2.7917366     0.9083675
C           3.4697119     1.2783919     0.1187223
H           2.5692177     1.8677311     0.2714854
C           3.3653860     0.0047280    -0.4510151
C           4.5369811    -0.7262173    -0.6302463
F           4.4397312    -1.9732484    -1.1482802
C           5.7886627    -0.2336232    -0.2863552
H           6.6675273    -0.8475464    -0.4539429
O           1.5707622    -0.3897364    -1.9642280
17
361_C8H7FO_0-4-11-9 (-75,) energy =    -484.1181461
C           1.2652820    -1.3243306     0.1802330
H           1.0769089    -0.5962107     0.9784293
H           1.7877653    -2.1712737     0.6437654
H           0.3210291    -1.6661585    -0.2491653
C           2.1449222    -0.7339692    -0.9026534
C           5.9037181     1.0765609     0.2287613
H           6.8536857     1.5329772     0.4914592
C           4.7051422     1.7302730     0.5214288
H           4.7162925     2.7014553     1.0070478
C           3.4883725     1.1345592     0.1864834
H           2.5555074     1.6457331     0.4112406
C           3.4499126    -0.1117299    -0.4504824
C           4.6653982    -0.7329172    -0.7370468
F           4.6492244    -1.9418722    -1.3380095
C           5.8891487    -0.1686208    -0.4012999
H           6.8026985    -0.7037607    -0.6388854
O           1.8521505    -0.7720713    -2.0804802
17
361_C8H7FO_0-4-11-9 (-60,) energy =    -484.1194455
C           1.1804333    -1.2074955     0.2036410
H           0.9903009    -0.3717665     0.8866617
H           1.5980686    -2.0216322     0.8102543
H           0.2453608    -1.5389600    -0.2528476
C           2.1788242    -0.8428278    -0.8786789
C           5.8874290     1.0880084     0.2101578
H           6.8241962     1.5786500     0.4584345
C           4.6710531     1.6654570     0.5792693
H           4.6538882     2.6132672     1.1087809
C           3.4744270     1.0216756     0.2641442
H           2.5286924     1.4753098     0.5490498
C           3.4671827    -0.1952480    -0.4316773
C           4.7026846    -0.7358917    -0.8014556
F           4.7351092    -1.9100859    -1.4594149
C           5.9078783    -0.1249164    -0.4793015
H           6.8365148    -0.6013895    -0.7758221
O           1.9869927    -1.1005923    -2.0510348
17
361_C8H7FO_0-4-11-9 (-45,) energy =    -484.1206630
C           1.0961965    -1.0841664     0.2055221
H           0.8017529    -0.1251771     0.6470374
H           1.4735062    -1.7093941     1.0242152
H           0.2224120    -1.5578754    -0.2460685
C           2.1737968    -0.9205398    -0.8535407
C           5.8706577     1.0636096     0.1854306
H           6.8029560     1.5668369     0.4253484
C           4.6554590     1.5790173     0.6405963
H           4.6333119     2.4905588     1.2301398
C           3.4665354     0.9189799     0.3344183
H           2.5245669     1.3274397     0.6883713
C           3.4577973    -0.2519812    -0.4397634
C           4.6953924    -0.7317996    -0.8910391
F           4.7469327    -1.8611087    -1.6165064
C           5.8945682    -0.1026239    -0.5790429
H           6.8224018    -0.5326050    -0.9417538
O           2.0266596    -1.3501692    -1.9825956
17
361_C8H7FO_0-4-11-9 (-30,) energy =    -484.1216494
C           1.0627069    -0.9835482     0.2009860
H           0.6333617     0.0230869     0.2797744
H           1.3935463    -1.2773443     1.2034041
H           0.2856091    -1.6644876    -0.1508972
C           2.2152683    -1.0141387    -0.7937129
C           5.8650532     1.0779876     0.2050558
H           6.7836022     1.6085125     0.4393170
C           4.6463475     1.5122327     0.7310891
H           4.6070460     2.3867040     1.3734738
C           3.4777661     0.8177538     0.4277381
H           2.5348082     1.1617861     0.8409946
C           3.4859179    -0.3096639    -0.4114672
C           4.7288550    -0.7111973    -0.9275283
F           4.8148190    -1.7942207    -1.7134800
C           5.9093858    -0.0427648    -0.6225786
H           6.8404995    -0.4110101    -1.0405570
O           2.1098033    -1.6050610    -1.8535248
17
361_C8H7FO_0-4-11-9 (-15,) energy =    -484.1222438
C           1.0186210    -0.8857755     0.1041971
H           0.6377331     0.1395362     0.0197914
H           1.2600299    -1.0622387     1.1584449
H           0.2360513    -1.5761558    -0.2148811
C           2.2314558    -1.0978216    -0.7942899
C           5.8685163     1.0480191     0.1509538
H           6.7830314     1.5883796     0.3785517
C           4.6624997     1.4169306     0.7513520
H           4.6287767     2.2487775     1.4482928
C           3.5003208     0.7115880     0.4524215
H           2.5692711     1.0066812     0.9247033
C           3.4965785    -0.3666833    -0.4515087
C           4.7298873    -0.7058335    -1.0367108
F           4.8193579    -1.7322373    -1.8924371
C           5.9040016    -0.0198458    -0.7431132
H           6.8243904    -0.3365878    -1.2225092
O           2.1601104    -1.8439108    -1.7554364
17
361_C8H7FO_0-4-11-9 (0,) energy =    -484.1223863
C           0.9960009    -0.8263524     0.0371331
H           0.7050002     0.2117463    -0.1624410
H           1.1214105    -0.9316169     1.1212878
H           0.1996579    -1.4927472    -0.2979978
C           2.2698993    -1.2027513    -0.7111621
C           5.8632078     1.0601499     0.1330652
H           6.7674127     1.6251650     0.3411842
C           4.6712298     1.3664135     0.7936691
H           4.6382999     2.1719220     1.5209234
C           3.5218250     0.6328860     0.5152877
H           2.6027971     0.8807600     1.0351265
C           3.5164899    -0.4198000    -0.4193482
C           4.7371010    -0.6970030    -1.0631751
F           4.8275919    -1.6803922    -1.9670581
C           5.8966105     0.0251188    -0.7984149
H           6.8048393    -0.2397300    -1.3296722
O           2.2548720    -2.1159144    -1.5188039
17
361_C8H7FO_0-4-11-9 (15,) energy =    -484.1222437
C           0.9663720    -0.7422960    -0.0545826
H           0.7649287     0.2948832    -0.3453457
H           0.9745608    -0.7822004     1.0416860
H           0.1678087    -1.3892564    -0.4214411
C           2.2844183    -1.2432953    -0.6332751
C           5.8513093     1.0950927     0.0986798
H           6.7518198     1.6738524     0.2837349
C           4.6900156     1.3415418     0.8346723
H           4.6788015     2.1118077     1.5997854
C           3.5431609     0.5941307     0.5823690
H           2.6468071     0.7941568     1.1598831
C           3.5158142    -0.4194644    -0.3931363
C           4.7053265    -0.6387180    -1.1111391
F           4.7602412    -1.5704056    -2.0717295
C           5.8585760     0.1044559    -0.8808874
H           6.7412213    -0.1088725    -1.4747633
O           2.3192787    -2.2808628    -1.2718410
17
361_C8H7FO_0-4-11-9 (30,) energy =    -484.1216493
C           0.9411824    -0.6513873    -0.1398065
H           0.8029060     0.3443024    -0.5757975
H           0.8445818    -0.5487128     0.9483046
H           0.1602138    -1.3265678    -0.4942153
C           2.2936436    -1.2392019    -0.5194042
C           5.8421490     1.1425115     0.1378665
H           6.7423705     1.7263695     0.3075436
C           4.7154145     1.3339168     0.9405828
H           4.7328755     2.0639383     1.7441084
C           3.5660296     0.5828932     0.7064021
H           2.6945376     0.7380119     1.3346999
C           3.5098883    -0.3814683    -0.3144956
C           4.6648360    -0.5510606    -1.0953876
F           4.6734880    -1.4347116    -2.1039121
C           5.8161382     0.2010412    -0.8897236
H           6.6711128     0.0338204    -1.5365102
O           2.3777430    -2.3603329    -0.9879141
17
361_C8H7FO_0-4-11-9 (45,) energy =    -484.1206630
C           0.9382984    -0.6529031    -0.2458676
H           0.8011773     0.1317561    -1.0002163
H           0.8234731    -0.1758303     0.7341852
H           0.1694957    -1.4183494    -0.3677985
C           2.3061423    -1.2933149    -0.4146487
C           5.8493694     1.1234808     0.1234437
H           6.7515058     1.7124090     0.2624048
C           4.7749304     1.2622631     1.0042587
H           4.8371420     1.9537632     1.8390655
C           3.6190998     0.5078733     0.8094440
H           2.7886419     0.6179615     1.5005677
C           3.5123169    -0.4074856    -0.2494711
C           4.6162566    -0.5302590    -1.1049056
F           4.5595148    -1.3748310    -2.1478717
C           5.7695579     0.2279046    -0.9426723
H           6.5837114     0.1017925    -1.6487563
O           2.4267171    -2.4666046    -0.7144082
17
361_C8H7FO_0-4-11-9 (60,) energy =    -484.1194454
C           0.9756057    -0.6486268    -0.3905383
H           0.8877756    -0.0809915    -1.3261102
H           0.8330851     0.0675994     0.4266594
H           0.1981845    -1.4148787    -0.3575408
C           2.3433816    -1.3028935    -0.3425547
C           5.8634880     1.1556344     0.1394323
H           6.7626859     1.7519148     0.2651244
C           4.8365145     1.2231919     1.0828402
H           4.9344477     1.8654260     1.9528782
C           3.6819601     0.4606534     0.9061452
H           2.8856736     0.5120273     1.6441540
C           3.5356250    -0.3878413    -0.2000985
C           4.5911960    -0.4443637    -1.1155565
F           4.4804384    -1.2384409    -2.1971636
C           5.7408192     0.3221708    -0.9728853
H           6.5188296     0.2511130    -1.7258557
O           2.4923531    -2.5032176    -0.4637456
17
361_C8H7FO_0-4-11-9 (75,) energy =    -484.1181461
C           1.0228239    -0.6631899    -0.5281995
H           1.0667609    -0.2029155    -1.5238808
H           0.8093399     0.1444695     0.1823426
H           0.2247482    -1.4083741    -0.5032749
C           2.3551434    -1.3185360    -0.2276055
C           5.8680063     1.1762877     0.1221662
H           6.7633875     1.7847675     0.2105449
C           4.9064387     1.1895315     1.1344897
H           5.0516666     1.8029170     2.0186901
C           3.7556467     0.4098106     1.0107645
H           3.0090190     0.4176617     1.8010435
C           3.5525907    -0.3976072    -0.1149622
C           4.5371469    -0.3948355    -1.1029158
F           4.3531736    -1.1557525    -2.2029870
C           5.6841380     0.3827887    -1.0110681
H           6.4105624     0.3532119    -1.8165672
O           2.4842792    -2.5199614    -0.1078612
17
361_C8H7FO_0-4-11-9 (90,) energy =    -484.1180282
C           1.0282761    -0.6398602    -0.5995165
H           1.2059841    -0.3236319    -1.6354065
H           0.7835826     0.2646774    -0.0292556
H           0.1945422    -1.3445844    -0.5648554
C           2.2808998    -1.2872126    -0.0484551
C           5.8163486     1.1997466     0.1005100
H           6.7095220     1.8170702     0.1299549
C           4.9529744     1.1589777     1.1973387
H           5.1717144     1.7446222     2.0852483
C           3.8067018     0.3632422     1.1553145
H           3.1375591     0.3256719     2.0111089
C           3.5137499    -0.4054752     0.0235250
C           4.3887699    -0.3326215    -1.0572493
F           4.0927405    -1.0464024    -2.1689077
C           5.5355744     0.4498412    -1.0427125
H           6.1829287     0.4629690    -1.9134304
O           2.3131216    -2.4359994     0.3422713
17
361_C8H7FO_0-4-11-9 (105,) energy =    -484.1197609
C           1.1252151    -0.6977207    -0.8124103
H           1.4272126    -0.5064806    -1.8486221
H           0.8315438     0.2666673    -0.3790503
H           0.2790978    -1.3878741    -0.7878975
C           2.2834071    -1.2723332    -0.0230733
C           5.8280258     1.1989360     0.0581721
H           6.7149373     1.8257961     0.0727863
C           5.0260029     1.0879776     1.1963866
H           5.2837943     1.6324204     2.0998747
C           3.8920862     0.2751379     1.1748962
H           3.2706758     0.1755298     2.0606670
C           3.5456884    -0.4372532     0.0205386
C           4.3532366    -0.2837223    -1.1042860
F           4.0063449    -0.9383947    -2.2392748
C           5.4944320     0.5069047    -1.1072046
H           6.0951860     0.5731290    -2.0083353
O           2.1924093    -2.2954959     0.6260036
17
361_C8H7FO_0-4-11-9 (120,) energy =    -484.1223036
C           1.2191396    -0.8324639    -1.0098207
H           1.6134534    -0.7684919    -2.0283041
H           0.8695581     0.1707905    -0.7329887
H           0.3814710    -1.5318561    -0.9679260
C           2.2914008    -1.2617666    -0.0281289
C           5.8724269     1.1524493     0.0809442
H           6.7638992     1.7722611     0.1122750
C           5.0916781     0.9837029     1.2273943
H           5.3696619     1.4760294     2.1544521
C           3.9545185     0.1792032     1.1812478
H           3.3472837     0.0271881     2.0687610
C           3.5719241    -0.4622124    -0.0054432
C           4.3652518    -0.2563121    -1.1347301
F           4.0187543    -0.8565937    -2.2993657
C           5.5136348     0.5243721    -1.1121905
H           6.1021731     0.6294439    -2.0176577
O           2.0957602    -2.1235866     0.8088601
17
361_C8H7FO_0-4-11-9 (135,) energy =    -484.1245572
C           1.2109942    -0.8991988    -1.0475328
H           1.5972699    -1.1984897    -2.0262104
H           0.9953098     0.1749904    -1.1038089
H           0.2959632    -1.4497913    -0.8212015
C           2.2269948    -1.1600957     0.0472856
C           5.8756259     1.1557367     0.1047426
H           6.7839923     1.7509603     0.1298877
C           5.1457436     0.9299930     1.2750680
H           5.4809262     1.3535310     2.2170256
C           3.9875739     0.1584691     1.2309599
H           3.4159673    -0.0407792     2.1320878
C           3.5245782    -0.3931484     0.0256861
C           4.2729516    -0.1340078    -1.1256627
F           3.8723705    -0.6463088    -2.3139599
C           5.4425544     0.6155059    -1.1058906
H           5.9905065     0.7640460    -2.0304775
O           1.9701222    -1.8786558     0.9979921
17
361_C8H7FO_0-4-11-9 (150,) energy =    -484.1266369
C           1.1972486    -0.9574040    -1.1184205
H           1.5616579    -1.5656812    -1.9532262
H           1.1206234     0.0717326    -1.4851419
H           0.2175370    -1.3229248    -0.8050169
C           2.1441688    -1.0503249     0.0629682
C           5.8633806     1.1486334     0.0945724
H           6.7922032     1.7115196     0.1184093
C           5.1846179     0.8567134     1.2818572
H           5.5803604     1.1959730     2.2343990
C           3.9994478     0.1298176     1.2394280
H           3.4607103    -0.1203478     2.1477237
C           3.4565237    -0.3146855     0.0219922
C           4.1570818     0.0093695    -1.1442615
F           3.6802103    -0.3887729    -2.3468821
C           5.3515754     0.7195161    -1.1291532
H           5.8556724     0.9244610    -2.0678105
O           1.8249395    -1.6474738     1.0784475
17
361_C8H7FO_0-4-11-9 (165,) energy =    -484.1279479
C           1.1788554    -1.0513544    -1.0929943
H           1.6361892    -1.7268352    -1.8239775
H           1.0641102    -0.0821467    -1.5894250
H           0.2038957    -1.4410800    -0.7948589
C           2.0447761    -0.9369008     0.1462719
C           5.8588353     1.1020177     0.1208601
H           6.8139332     1.6195400     0.1336840
C           5.2100858     0.7860513     1.3192423
H           5.6567801     1.0591095     2.2705435
C           3.9899830     0.1211685     1.2884859
H           3.4686594    -0.1427185     2.2027799
C           3.3786259    -0.2423778     0.0751530
C           4.0566469     0.0975745    -1.1013438
F           3.5293237    -0.2210779    -2.3061855
C           5.2820808     0.7543468    -1.0989032
H           5.7591325     0.9805740    -2.0467537
O           1.6532160    -1.3692612     1.2193773
17
361_C8H7FO_0-4-11-9 (180,) energy =    -484.1283671
C           1.2154518    -1.2142419    -1.0650719
H           1.7880992    -1.9012790    -1.6970821
H           1.0237707    -0.3205553    -1.6682754
H           0.2707389    -1.6763615    -0.7733331
C           1.9835356    -0.8667020     0.1946520
C           5.8734127     1.0275617     0.1292288
H           6.8499632     1.5035586     0.1330442
C           5.2436958     0.6948509     1.3333768
H           5.7281865     0.9106701     2.2808786
C           3.9944883     0.0869315     1.3129367
H           3.4827823    -0.1815834     2.2312002
C           3.3354084    -0.2087530     0.1056672
C           3.9994055     0.1401705    -1.0767808
F           3.4316345    -0.1110502    -2.2790610
C           5.2493477     0.7495575    -1.0847172
H           5.7081370     0.9935925    -2.0371549
O           1.5130247    -1.1166787     1.2940484
