31
111_C11H18N2_11-0-22-21 (-165,) energy =    -539.5094531
C           2.4136275    -1.5973405    -0.4338505
H           2.6990887    -2.5969243    -0.7952877
H           1.9084690    -1.7754804     0.5226518
C           6.1494258     0.4187255     0.4139427
H           7.0547980     1.0331588     0.4836220
H           6.2565698    -0.3647723     1.1759095
C           4.9050124     1.2581831     0.7302125
H           5.0287599     1.7939996     1.6794821
H           4.7978516     2.0356472    -0.0409646
C           3.6070340     0.4067373     0.7811521
H           3.5143377    -0.0028065     1.7978360
C           3.7292022    -0.8261243    -0.1727263
H           4.3343598    -1.5590840     0.3799665
C           4.5772339    -0.4667875    -1.4093886
H           4.1951965     0.4516818    -1.8787488
H           4.5235278    -1.2552955    -2.1704256
C           6.0474652    -0.2205646    -0.9938011
H           6.5979010    -1.1695182    -1.0077997
H           6.5302541     0.4262714    -1.7368364
C          -0.4851830    -0.9514403    -2.4867062
H          -1.5193521    -1.1558452    -2.7301336
N           0.1286553    -1.5552707    -1.4126376
C           1.3631149    -1.0832433    -1.3850018
N           1.5655092    -0.2101318    -2.4225486
H           2.4268865     0.2657053    -2.6402548
C           0.3844374    -0.1130986    -3.1336605
H           0.2841176     0.5338133    -3.9922539
C           2.3838699     1.3060281     0.5494415
H           2.3853319     1.7487553    -0.4539997
H           2.3909412     2.1349740     1.2679859
H           1.4393257     0.7673479     0.6730193
31
111_C11H18N2_11-0-22-21 (-150,) energy =    -539.5113549
C           2.3880094    -1.6579330    -0.4652040
H           2.6818920    -2.6393385    -0.8699428
H           1.8827126    -1.8734176     0.4823494
C           6.0949289     0.3948289     0.4166569
H           6.9926675     1.0184686     0.5023951
H           6.2123220    -0.4079802     1.1567389
C           4.8389837     1.2083271     0.7524033
H           4.9549412     1.7255406     1.7128610
H           4.7200424     2.0000318    -0.0023395
C           3.5527579     0.3373493     0.7842708
H           3.4573031    -0.0843728     1.7956805
C           3.6974843    -0.8817854    -0.1833956
H           4.3112704    -1.6167850     0.3570762
C           4.5339812    -0.4884958    -1.4170072
H           4.1170104     0.4198216    -1.8750075
H           4.5035005    -1.2762150    -2.1816233
C           6.0002902    -0.2062399    -1.0072725
H           6.5829207    -1.1346248    -1.0544636
H           6.4534751     0.4791547    -1.7343125
C          -0.5721608    -0.7907864    -2.3430928
H          -1.6447190    -0.8427848    -2.4747359
N           0.0419867    -1.3498127    -1.2444218
C           1.3322272    -1.0959583    -1.3786794
N           1.5671578    -0.4082709    -2.5424653
H           2.4681409    -0.1218144    -2.8925654
C           0.3512130    -0.2016233    -3.1661708
H           0.2696641     0.3376055    -4.0980687
C           2.3202417     1.2231451     0.5473949
H           2.3189402     1.6568385    -0.4601196
H           2.3204348     2.0573080     1.2600818
H           1.3809212     0.6768868     0.6740199
31
111_C11H18N2_11-0-22-21 (-135,) energy =    -539.5128931
C           2.4306196    -1.6818856    -0.4885531
H           2.7415762    -2.6480845    -0.9161252
H           1.9169432    -1.9213385     0.4481317
C           6.0946553     0.4384905     0.4273099
H           6.9781671     1.0811230     0.5212687
H           6.2314900    -0.3731026     1.1544848
C           4.8210666     1.2177660     0.7747435
H           4.9255300     1.7256841     1.7415181
H           4.6834664     2.0154227     0.0295253
C           3.5536071     0.3188281     0.7969485
H           3.4653515    -0.1122168     1.8051048
C           3.7265961    -0.8899942    -0.1786657
H           4.3487960    -1.6205731     0.3584781
C           4.5533042    -0.4725821    -1.4103275
H           4.0970655     0.4113769    -1.8765541
H           4.5530111    -1.2695557    -2.1674080
C           6.0110549    -0.1409958    -1.0053294
H           6.6298586    -1.0444006    -1.0730634
H           6.4317406     0.5747190    -1.7227106
C          -0.5269673    -0.5778425    -2.2490019
H          -1.6019866    -0.4682674    -2.2997930
N           0.0858343    -1.1081815    -1.1351140
C           1.3825167    -1.0917652    -1.3896532
N           1.6197039    -0.5819092    -2.6416153
H           2.5224383    -0.4752113    -3.0786368
C           0.4014726    -0.2434778    -3.1996679
H           0.3228809     0.1923604    -4.1844236
C           2.3054858     1.1836509     0.5636444
H           2.2921949     1.6107155    -0.4468900
H           2.3007907     2.0227427     1.2707402
H           1.3750725     0.6256657     0.6987203
31
111_C11H18N2_11-0-22-21 (-120,) energy =    -539.5135066
C           2.4375653    -1.7154777    -0.4994443
H           2.7628376    -2.6735856    -0.9324958
H           1.9170794    -1.9634882     0.4313156
C           6.0798416     0.4334741     0.4324979
H           6.9585064     1.0812108     0.5375180
H           6.2349497    -0.4028934     1.1273462
C           4.8038835     1.1869727     0.8227649
H           4.9154658     1.6628049     1.8049744
H           4.6506758     2.0078824     0.1064508
C           3.5417853     0.2788246     0.8286365
H           3.4571726    -0.1731083     1.8279958
C           3.7228060    -0.9089804    -0.1701631
H           4.3579912    -1.6415277     0.3490560
C           4.5262784    -0.4603085    -1.4055485
H           4.0331077     0.4048427    -1.8677707
H           4.5417230    -1.2561854    -2.1645353
C           5.9813024    -0.0929156    -1.0183849
H           6.6305626    -0.9697127    -1.1347973
H           6.3606538     0.6650560    -1.7151862
C          -0.4672182    -0.3933446    -2.2064464
H          -1.5122272    -0.1138261    -2.2072498
N           0.1425631    -0.8789279    -1.0710018
C           1.3987554    -1.1169520    -1.4044754
N           1.6115703    -0.8072360    -2.7247027
H           2.4852075    -0.8968266    -3.2216935
C           0.4221665    -0.3378886    -3.2479503
H           0.3315764    -0.0237862    -4.2769993
C           2.2911970     1.1447733     0.6153375
H           2.2754138     1.5898759    -0.3876094
H           2.2904599     1.9715167     1.3370844
H           1.3613673     0.5848686     0.7399497
31
111_C11H18N2_11-0-22-21 (-105,) energy =    -539.5130770
C           2.4761078    -1.7248676    -0.4909278
H           2.8037751    -2.6850515    -0.9151008
H           1.9525946    -1.9648187     0.4407617
C           6.1355701     0.3894738     0.4327702
H           7.0212035     1.0262087     0.5474852
H           6.3062956    -0.4854754     1.0744884
C           4.8773499     1.1279964     0.9006358
H           5.0189040     1.5439812     1.9059311
H           4.7162444     1.9911053     0.2377975
C           3.6020872     0.2362968     0.8845634
H           3.5198533    -0.2527627     1.8666643
C           3.7616936    -0.9154094    -0.1576717
H           4.4119040    -1.6600547     0.3247239
C           4.5286649    -0.4250199    -1.3993309
H           4.0097095     0.4405362    -1.8304792
H           4.5326937    -1.2000753    -2.1793822
C           5.9908483    -0.0521309    -1.0414721
H           6.6522105    -0.9064671    -1.2334118
H           6.3312509     0.7539649    -1.7035851
C          -0.3244538    -0.2268224    -2.2383568
H          -1.3062719     0.2272640    -2.2355683
N           0.2837602    -0.6217712    -1.0679171
C           1.4510737    -1.1327881    -1.4162538
N           1.6074648    -1.0823308    -2.7795473
H           2.4132093    -1.4031238    -3.2960314
C           0.4765304    -0.5002232    -3.3169468
H           0.3559698    -0.3503239    -4.3793491
C           2.3649683     1.1301687     0.7176076
H           2.3561045     1.6249896    -0.2616918
H           2.3802764     1.9193622     1.4803395
H           1.4257072     0.5810064     0.8103664
31
111_C11H18N2_11-0-22-21 (-90,) energy =    -539.5120509
C           2.4317943    -1.6733338    -0.4866614
H           2.7435589    -2.6552549    -0.8688752
H           1.8919868    -1.8697741     0.4466105
C           6.1198304     0.4172916     0.3842029
H           7.0050523     1.0557519     0.4929164
H           6.3285407    -0.4910208     0.9657202
C           4.8807872     1.1148338     0.9551782
H           5.0688112     1.4716933     1.9755539
H           4.6818027     2.0140322     0.3536486
C           3.6115440     0.2142289     0.9477950
H           3.5810206    -0.3324580     1.9023960
C           3.7300117    -0.8743639    -0.1656873
H           4.4067660    -1.6372930     0.2466122
C           4.4319100    -0.3082933    -1.4125377
H           3.8836012     0.5739223    -1.7666376
H           4.3986349    -1.0326671    -2.2377329
C           5.9063390     0.0583616    -1.1040977
H           6.5644863    -0.7769044    -1.3756260
H           6.2084204     0.9037226    -1.7351122
C          -0.1712349    -0.0538702    -2.4322239
H          -1.0480957     0.5753189    -2.5066563
N           0.4294207    -0.3010942    -1.2182788
C           1.4504530    -1.0996208    -1.4707059
N           1.5212834    -1.3732287    -2.8152672
H           2.2101025    -1.9579846    -3.2656232
C           0.4875336    -0.7070915    -3.4418105
H           0.3248664    -0.7680521    -4.5073760
C           2.3632426     1.1056681     0.8952859
H           2.3113568     1.6714432    -0.0421119
H           2.4009237     1.8322680     1.7172812
H           1.4309337     0.5431327     0.9753268
31
111_C11H18N2_11-0-22-21 (-75,) energy =    -539.5114382
C           2.4279901    -1.6269676    -0.4554036
H           2.6934622    -2.6381328    -0.7921664
H           1.8552863    -1.7619072     0.4694148
C           6.1534535     0.4573312     0.3640953
H           7.0230906     1.1204572     0.4479224
H           6.4087764    -0.4502401     0.9284219
C           4.9155789     1.1083244     0.9898183
H           5.1336279     1.4710721     2.0022142
H           4.6509429     1.9985338     0.4003526
C           3.6918812     0.1528024     1.0397381
H           3.7731151    -0.4403952     1.9633672
C           3.7571756    -0.8751641    -0.1390114
H           4.4405341    -1.6658375     0.2036857
C           4.4102424    -0.2493341    -1.3836676
H           3.8463896     0.6469643    -1.6705466
H           4.3390920    -0.9326862    -2.2400428
C           5.8937711     0.1052148    -1.1192684
H           6.5375923    -0.7336210    -1.4138485
H           6.1813220     0.9503474    -1.7573806
C           0.1210907     0.1444639    -2.6344984
H          -0.5880205     0.9389790    -2.8251240
N           0.7370366     0.0161104    -1.4095645
C           1.5247352    -1.0393738    -1.5052443
N           1.4311192    -1.5923465    -2.7595308
H           1.9274171    -2.4092972    -3.0847824
C           0.5335239    -0.8424438    -3.4921348
H           0.2830110    -1.0803525    -4.5149433
C           2.4051305     0.9829714     1.1471094
H           2.2165324     1.5644172     0.2399934
H           2.4922872     1.6812655     1.9896043
H           1.5167214     0.3675924     1.3133690
31
111_C11H18N2_11-0-22-21 (-60,) energy =    -539.5114194
C           1.8985208    -0.9304008     0.1254704
H           1.7758127    -1.9999675     0.3427988
H           1.3644885    -0.4045226     0.9265570
C           6.1582696     0.0269162     0.2187651
H           7.1846736     0.3607418     0.0238223
H           6.1860430    -0.4887020     1.1889242
C           5.2090894     1.2256146     0.3199159
H           5.6033543     1.9777153     1.0151153
H           5.1509697     1.7200886    -0.6607796
C           3.7832759     0.8162060     0.7700838
H           3.8080797     0.7126412     1.8657760
C           3.4201435    -0.6046651     0.2095573
H           3.8118838    -1.3173534     0.9499521
C           4.1643748    -0.8957274    -1.1059466
H           3.9077916    -0.1220815    -1.8387393
H           3.8165457    -1.8436229    -1.5377285
C           5.6935067    -0.9500094    -0.8880323
H           5.9982484    -1.9716839    -0.6262830
H           6.1987781    -0.7127158    -1.8327514
C           0.3616144     0.1750821    -2.9790581
H           0.1162835     0.9449699    -3.6983518
N           1.0836137     0.4651262    -1.8428765
C           1.2081760    -0.6747314    -1.1876081
N           0.5861114    -1.6889348    -1.8737551
H           0.5386817    -2.6556085    -1.5859057
C           0.0386638    -1.1564089    -3.0234084
H          -0.5086952    -1.7574125    -3.7337804
C           2.7979947     1.9488953     0.4465488
H           2.6348840     2.0548280    -0.6290491
H           3.1888396     2.8965492     0.8389336
H           1.8149515     1.7887703     0.9021057
31
111_C11H18N2_11-0-22-21 (-45,) energy =    -539.5115015
C           1.9477272    -0.9877296     0.0793640
H           1.8500391    -2.0672990     0.2591447
H           1.4008418    -0.5050205     0.9008785
C           6.1789762     0.0661444     0.2517367
H           7.2005738     0.4252681     0.0775076
H           6.2015360    -0.4545148     1.2194053
C           5.1998935     1.2415391     0.3431186
H           5.5642719     1.9992571     1.0485334
H           5.1452275     1.7392063    -0.6360466
C           3.7781007     0.7940066     0.7674160
H           3.7894419     0.6775099     1.8621595
C           3.4571270    -0.6282416     0.1844110
H           3.8521752    -1.3394311     0.9245917
C           4.2322526    -0.8919181    -1.1192203
H           3.9721626    -0.1203987    -1.8514166
H           3.9137871    -1.8450114    -1.5623359
C           5.7573440    -0.9149299    -0.8690086
H           6.0790265    -1.9310908    -0.6058153
H           6.2768046    -0.6618565    -1.8018873
C           0.4672825     0.1547523    -3.0423690
H           0.3362581     0.8949764    -3.8202343
N           1.3114995     0.3794793    -1.9773857
C           1.2495236    -0.7035984    -1.2243453
N           0.3894958    -1.6193605    -1.7791869
H           0.1674910    -2.5282051    -1.3992871
C          -0.1206435    -1.0790867    -2.9426913
H          -0.8251831    -1.6103763    -3.5646095
C           2.7703715     1.9064465     0.4426808
H           2.6318252     2.0254723    -0.6348743
H           3.1256747     2.8568764     0.8612967
H           1.7825341     1.7112449     0.8747654
31
111_C11H18N2_11-0-22-21 (-30,) energy =    -539.5115158
C           2.0066526    -1.0760211     0.0312854
H           1.9538204    -2.1671560     0.1548140
H           1.4488841    -0.6603251     0.8835096
C           6.1921028     0.1071504     0.2886094
H           7.2071724     0.4955259     0.1407639
H           6.2055935    -0.4148388     1.2557499
C           5.1793140     1.2554043     0.3582965
H           5.5048549     2.0190608     1.0762995
H           5.1376544     1.7559527    -0.6200184
C           3.7588382     0.7688024     0.7418017
H           3.7394707     0.6540762     1.8367865
C           3.4969039    -0.6627299     0.1538364
H           3.9015773    -1.3582871     0.9038958
C           4.3083212    -0.9046409    -1.1323243
H           4.0426789    -0.1422793    -1.8708658
H           4.0277134    -1.8670056    -1.5807322
C           5.8269933    -0.8832380    -0.8440216
H           6.1728877    -1.8897246    -0.5742136
H           6.3617385    -0.6123973    -1.7631570
C           0.5250828     0.1102830    -3.0767669
H           0.4677677     0.8095675    -3.8999872
N           1.4712453     0.2511680    -2.0847246
C           1.2786134    -0.7510877    -1.2475013
N           0.2359715    -1.5356356    -1.6773589
H          -0.1101131    -2.3654009    -1.2175499
C          -0.2568337    -0.9906843    -2.8465972
H          -1.0825122    -1.4314097    -3.3846481
C           2.7291638     1.8508714     0.3855629
H           2.6276990     1.9698489    -0.6959851
H           3.0391019     2.8102633     0.8195136
H           1.7335940     1.6220229     0.7827260
31
111_C11H18N2_11-0-22-21 (-15,) energy =    -539.5115102
C           2.0592881    -1.1511734    -0.0137859
H           2.0505171    -2.2500288     0.0392009
H           1.4950329    -0.8144192     0.8693075
C           6.1995548     0.1439247     0.3343825
H           7.2080461     0.5576333     0.2124707
H           6.2012152    -0.3767383     1.3023456
C           5.1570460     1.2668003     0.3765587
H           5.4448736     2.0391188     1.1014382
H           5.1279535     1.7648191    -0.6034593
C           3.7399416     0.7444974     0.7235533
H           3.6940412     0.6301123     1.8178732
C           3.5311589    -0.6932422     0.1310051
H           3.9390589    -1.3767101     0.8907341
C           4.3793979    -0.9158374    -1.1352304
H           4.1130439    -0.1628984    -1.8820502
H           4.1343803    -1.8859615    -1.5875514
C           5.8890226    -0.8563054    -0.8061910
H           6.2530322    -1.8534176    -0.5254667
H           6.4413043    -0.5728814    -1.7110593
C           0.5731540     0.0970575    -3.0972550
H           0.5735410     0.7477779    -3.9611956
N           1.5952302     0.1372339    -2.1727558
C           1.3003481    -0.7677355    -1.2586713
N           0.1173175    -1.3926136    -1.5720760
H          -0.3277281    -2.1244701    -1.0371528
C          -0.3580864    -0.8439328    -2.7472520
H          -1.2799235    -1.1712116    -3.2040073
C           2.6925102     1.7995160     0.3395020
H           2.6305290     1.9280386    -0.7440027
H           2.9575730     2.7631507     0.7933705
H           1.6900298     1.5373914     0.6969412
31
111_C11H18N2_11-0-22-21 (0,) energy =    -539.5116018
C           2.1031947    -1.2093944    -0.0836791
H           2.1344476    -2.3098428    -0.1025798
H           1.5311639    -0.9516684     0.8206785
C           6.1984500     0.1656484     0.3809883
H           7.2043124     0.5952665     0.2987690
H           6.1736240    -0.3638129     1.3438545
C           5.1379597     1.2722092     0.3948090
H           5.3881164     2.0441673     1.1339329
H           5.1354191     1.7758400    -0.5827913
C           3.7176301     0.7249232     0.6878882
H           3.6297803     0.6127654     1.7799075
C           3.5583165    -0.7164607     0.0915721
H           3.9623550    -1.3907607     0.8617723
C           4.4453808    -0.9206394    -1.1512727
H           4.1826894    -0.1764961    -1.9073821
H           4.2340448    -1.8965800    -1.6077362
C           5.9439280    -0.8277142    -0.7789221
H           6.3263629    -1.8185014    -0.5003200
H           6.5134333    -0.5182416    -1.6644013
C           0.6177693     0.0886247    -3.1462200
H           0.6620856     0.6767884    -4.0528035
N           1.6945185     0.0188243    -2.2873775
C           1.3219058    -0.7658451    -1.2942471
N           0.0344452    -1.2041487    -1.4904149
H          -0.4843583    -1.8172875    -0.8782329
C          -0.4259476    -0.6618025    -2.6748285
H          -1.4193774    -0.8570872    -3.0496718
C           2.6677659     1.7602293     0.2591972
H           2.6562273     1.8955122    -0.8255115
H           2.8915922     2.7269698     0.7284616
H           1.6548201     1.4764414     0.5669549
31
111_C11H18N2_11-0-22-21 (15,) energy =    -539.5119200
C           2.1492629    -1.2809623    -0.1407195
H           2.2225246    -2.3769798    -0.2214502
H           1.5721437    -1.0953685     0.7776774
C           6.1911904     0.1911651     0.4249738
H           7.1898082     0.6424559     0.3781454
H           6.1495424    -0.3520442     1.3795111
C           5.1084378     1.2758853     0.4211630
H           5.3192733     2.0425314     1.1778511
H           5.1275353     1.7926941    -0.5494023
C           3.6894990     0.6971324     0.6594325
H           3.5577450     0.5865845     1.7471550
C           3.5856718    -0.7464852     0.0602632
H           3.9943377    -1.4111708     0.8365296
C           4.5042996    -0.9194307    -1.1643994
H           4.2394771    -0.1789437    -1.9231299
H           4.3282409    -1.8968722    -1.6317480
C           5.9911893    -0.7901933    -0.7554797
H           6.3953557    -1.7740179    -0.4830399
H           6.5721221    -0.4504718    -1.6222493
C           0.6352658     0.0264888    -3.1822403
H           0.6966325     0.5344078    -4.1352223
N           1.7534141    -0.1514829    -2.3950062
C           1.3439411    -0.7922459    -1.3166416
N          -0.0071565    -1.0305212    -1.3868304
H          -0.5644536    -1.5027197    -0.6894960
C          -0.4710244    -0.5109045    -2.5802450
H          -1.5098648    -0.5688479    -2.8682600
C           2.6363990     1.7075074     0.1810571
H           2.6660620     1.8365299    -0.9045924
H           2.8224952     2.6828000     0.6490174
H           1.6176635     1.4063960     0.4504805
31
111_C11H18N2_11-0-22-21 (30,) energy =    -539.5124151
C           2.1831506    -1.3430559    -0.1965636
H           2.2964316    -2.4305345    -0.3281287
H           1.5994250    -1.2194190     0.7274445
C           6.1708684     0.2252462     0.4573265
H           7.1601359     0.6987108     0.4410650
H           6.1195689    -0.3350976     1.4013480
C           5.0655558     1.2867651     0.4451544
H           5.2402546     2.0443091     1.2199513
H           5.1000120     1.8208904    -0.5156257
C           3.6517868     0.6754702     0.6339480
H           3.4811752     0.5636394     1.7160171
C           3.6007624    -0.7679180     0.0307955
H           4.0166545    -1.4248864     0.8098281
C           4.5429529    -0.9041842    -1.1803091
H           4.2714216    -0.1644014    -1.9377745
H           4.4004405    -1.8799108    -1.6614094
C           6.0189335    -0.7388223    -0.7440127
H           6.4472269    -1.7154096    -0.4828177
H           6.6040690    -0.3659661    -1.5941747
C           0.6439319    -0.0568321    -3.2294654
H           0.7064788     0.3517241    -4.2291157
N           1.7802166    -0.3531350    -2.5070945
C           1.3626275    -0.8223038    -1.3463142
N          -0.0097709    -0.8361640    -1.3012659
H          -0.5751913    -1.1455377    -0.5238973
C          -0.4814235    -0.3489507    -2.5052135
H          -1.5362349    -0.2557653    -2.7152635
C           2.5961344     1.6616286     0.1115759
H           2.6584412     1.7812643    -0.9744360
H           2.7511508     2.6461356     0.5713534
H           1.5746284     1.3470034     0.3522137
31
111_C11H18N2_11-0-22-21 (45,) energy =    -539.5127528
C           2.2108354    -1.4006570    -0.2459547
H           2.3573010    -2.4778149    -0.4147805
H           1.6205501    -1.3231693     0.6784420
C           6.1538413     0.2497863     0.4676347
H           7.1333824     0.7432877     0.4710103
H           6.1047345    -0.3308099     1.3993585
C           5.0283299     1.2896388     0.4643111
H           5.1777818     2.0332241     1.2576526
H           5.0668188     1.8455261    -0.4839585
C           3.6220711     0.6494410     0.6184265
H           3.4275832     0.5294853     1.6954481
C           3.6114287    -0.7890856     0.0043680
H           4.0386668    -1.4436197     0.7792334
C           4.5633475    -0.8848013    -1.2027794
H           4.2801749    -0.1390468    -1.9512039
H           4.4454518    -1.8537047    -1.7024547
C           6.0326058    -0.6911593    -0.7549758
H           6.4833744    -1.6623321    -0.5123894
H           6.6130914    -0.2856348    -1.5932692
C           0.6515513    -0.1871422    -3.2926135
H           0.6979425     0.0970980    -4.3353950
N           1.7781299    -0.5980198    -2.6131734
C           1.3836653    -0.8630974    -1.3814368
N           0.0350749    -0.6424088    -1.2515930
H          -0.5079100    -0.7669112    -0.4094253
C          -0.4452476    -0.2063410    -2.4713216
H          -1.4844251     0.0419289    -2.6257315
C           2.5626508     1.6193637     0.0732938
H           2.6380498     1.7310252    -1.0135845
H           2.7025046     2.6107422     0.5227851
H           1.5414862     1.2985718     0.3039973
31
111_C11H18N2_11-0-22-21 (60,) energy =    -539.5125632
C           2.2208061    -1.4389113    -0.2161192
H           2.3838942    -2.5113204    -0.3874806
H           1.6298807    -1.3682692     0.7081316
C           6.1505762     0.2511498     0.4776239
H           7.1242420     0.7560185     0.4834255
H           6.1257249    -0.3680613     1.3850272
C           5.0136407     1.2765375     0.5373949
H           5.1680567     1.9887225     1.3580900
H           5.0304745     1.8716692    -0.3874688
C           3.6156774     0.6150671     0.6871059
H           3.4311612     0.4633555     1.7616601
C           3.6149193    -0.8035140     0.0304709
H           4.0721002    -1.4732129     0.7743658
C           4.5388356    -0.8378705    -1.2011625
H           4.2303268    -0.0625399    -1.9103443
H           4.4199157    -1.7831687    -1.7419267
C           6.0153750    -0.6394018    -0.7804859
H           6.4852536    -1.6129070    -0.5894241
H           6.5701935    -0.1903928    -1.6139666
C           0.6220497    -0.4260338    -3.3095351
H           0.6261854    -0.3152127    -4.3857178
N           1.7161710    -0.9254246    -2.6377868
C           1.3897328    -0.9223610    -1.3577711
N           0.1108879    -0.4536413    -1.1900040
H          -0.3744070    -0.3550125    -0.3101929
C          -0.3898878    -0.1262077    -2.4346242
H          -1.3852322     0.2696249    -2.5687537
C           2.5431413     1.5884776     0.1755336
H           2.5865021     1.7037932    -0.9135024
H           2.6979911     2.5793977     0.6206503
H           1.5287661     1.2710550     0.4364469
31
111_C11H18N2_11-0-22-21 (75,) energy =    -539.5121795
C           2.1736708    -1.4127830    -0.2353228
H           2.3153295    -2.4961713    -0.3219971
H           1.5570979    -1.2569178     0.6601574
C           6.1323090     0.2732157     0.3699078
H           7.0985823     0.7916136     0.3499740
H           6.1643904    -0.3930857     1.2429965
C           4.9885187     1.2773795     0.5478593
H           5.1796913     1.9447613     1.3979626
H           4.9470315     1.9237452    -0.3412529
C           3.6108328     0.5857814     0.7384669
H           3.4958368     0.3626928     1.8099618
C           3.5821009    -0.7882483    -0.0085209
H           4.0769632    -1.4983540     0.6699046
C           4.4438743    -0.7340426    -1.2824138
H           4.1008139     0.0927731    -1.9165053
H           4.2966901    -1.6360573    -1.8847223
C           5.9377799    -0.5520903    -0.9246873
H           6.4162194    -1.5329456    -0.8073741
H           6.4509690    -0.0596392    -1.7602912
C           0.6774232    -0.8226471    -3.4804920
H           0.6490042    -0.9899396    -4.5489750
N           1.6475255    -1.3994180    -2.6922738
C           1.3998379    -0.9988473    -1.4568707
N           0.2879266    -0.1961639    -1.4284948
H          -0.1036610     0.2463638    -0.6104545
C          -0.1816145    -0.0708388    -2.7208451
H          -1.0560986     0.5150400    -2.9608260
C           2.4958845     1.5731878     0.3646740
H           2.4606499     1.7613479    -0.7145201
H           2.6659637     2.5355083     0.8630818
H           1.5077921     1.2215157     0.6826125
31
111_C11H18N2_11-0-22-21 (90,) energy =    -539.5122518
C           2.1455527    -1.3977824    -0.2018994
H           2.2694798    -2.4840045    -0.2511888
H           1.5226236    -1.1985452     0.6801359
C           6.1245361     0.2846515     0.3106041
H           7.0845177     0.8132514     0.2689819
H           6.2041428    -0.4222106     1.1478845
C           4.9837690     1.2685198     0.5921808
H           5.2126978     1.8974504     1.4619910
H           4.8935932     1.9551872    -0.2626164
C           3.6228013     0.5552035     0.8177815
H           3.5656675     0.2751083     1.8801993
C           3.5634150    -0.7795948     0.0027616
H           4.0910684    -1.5178416     0.6231633
C           4.3660610    -0.6599877    -1.3045689
H           3.9881633     0.1933972    -1.8833293
H           4.1967620    -1.5376133    -1.9369847
C           5.8739530    -0.4801690    -1.0112416
H           6.3638432    -1.4610455    -0.9636820
H           6.3429515     0.0557128    -1.8460366
C           0.6289326    -1.0865643    -3.4716094
H           0.5012942    -1.4448190    -4.4843982
N           1.4736543    -1.7216490    -2.5893824
C           1.3981338    -1.0420319    -1.4571174
N           0.5209768     0.0045297    -1.5856439
H           0.2949543     0.6795226    -0.8708330
C           0.0230995    -0.0119167    -2.8736443
H          -0.6966114     0.7143605    -3.2205537
C           2.4844862     1.5535438     0.5608220
H           2.4157509     1.8254552    -0.4991661
H           2.6608202     2.4775121     1.1247662
H           1.5125028     1.1644509     0.8892027
31
111_C11H18N2_11-0-22-21 (105,) energy =    -539.5118934
C           2.1594143    -1.4181259    -0.1950853
H           2.2954170    -2.5023577    -0.2417306
H           1.5347619    -1.2246065     0.6880687
C           6.1173778     0.2959318     0.3217254
H           7.0738340     0.8317907     0.2946428
H           6.2122738    -0.4523378     1.1203330
C           4.9761785     1.2588415     0.6674785
H           5.2126730     1.8405722     1.5674833
H           4.8782208     1.9905392    -0.1483357
C           3.6165305     0.5325732     0.8647773
H           3.5546896     0.2150845     1.9161745
C           3.5657615    -0.7736248     0.0060718
H           4.1198594    -1.5184188     0.5943996
C           4.3453656    -0.5978622    -1.3089529
H           3.9437979     0.2663639    -1.8551169
H           4.1829283    -1.4609720    -1.9637556
C           5.8556285    -0.4017107    -1.0343694
H           6.3659866    -1.3729846    -1.0482598
H           6.2980304     0.1879397    -1.8471273
C           0.4829889    -1.2895025    -3.3950706
H           0.2181739    -1.7612081    -4.3319414
N           1.2668037    -1.9355241    -2.4656537
C           1.4010427    -1.0952391    -1.4527050
N           0.7175232     0.0676263    -1.7027841
H           0.6557595     0.8630117    -1.0860625
C           0.1261030    -0.0447710    -2.9456604
H          -0.4723024     0.7475212    -3.3701838
C           2.4771969     1.5375759     0.6412980
H           2.4552957     1.8937967    -0.3965043
H           2.6218180     2.4184264     1.2782808
H           1.4964140     1.1185041     0.8984367
31
111_C11H18N2_11-0-22-21 (120,) energy =    -539.5110859
C           2.1689478    -1.4329660    -0.2218033
H           2.3162959    -2.5154892    -0.2710760
H           1.5509253    -1.2528962     0.6702570
C           6.1003707     0.3075371     0.3283301
H           7.0557693     0.8459104     0.3267182
H           6.1966246    -0.4767492     1.0912033
C           4.9575621     1.2525406     0.7162977
H           5.1913190     1.7908270     1.6435260
H           4.8650644     2.0224466    -0.0643519
C           3.5948224     0.5202364     0.8704241
H           3.5127725     0.1715163     1.9103672
C           3.5614535    -0.7619709    -0.0233009
H           4.1356181    -1.5082361     0.5432379
C           4.3336046    -0.5389096    -1.3358131
H           3.9185739     0.3319177    -1.8605744
H           4.1851796    -1.3892373    -2.0110713
C           5.8426906    -0.3268118    -1.0590199
H           6.3717338    -1.2858627    -1.1234933
H           6.2692844     0.3111690    -1.8432063
C           0.2692395    -1.3996068    -3.2947206
H          -0.1537472    -1.9313138    -4.1365794
N           1.0158716    -2.0523019    -2.3396856
C           1.3818874    -1.1280879    -1.4666737
N           0.8837140     0.0970200    -1.8313520
H           1.0031604     0.9596625    -1.3235796
C           0.1697929    -0.0643392    -3.0024142
H          -0.3181427     0.7631964    -3.4956449
C           2.4581919     1.5306944     0.6581896
H           2.4935654     1.9644970    -0.3506267
H           2.5613186     2.3673605     1.3594241
H           1.4680179     1.0915499     0.8281375
31
111_C11H18N2_11-0-22-21 (135,) energy =    -539.5100301
C           2.2036067    -1.4463624    -0.2474314
H           2.3598166    -2.5273183    -0.3089484
H           1.5963249    -1.2879947     0.6570791
C           6.1158385     0.3065689     0.3408365
H           7.0706756     0.8455888     0.3591950
H           6.2085820    -0.4971208     1.0835555
C           4.9703551     1.2411987     0.7463781
H           5.1968686     1.7502014     1.6917037
H           4.8879853     2.0352653    -0.0108779
C           3.6037716     0.5080885     0.8641988
H           3.5030240     0.1400689     1.8957330
C           3.5856149    -0.7594425    -0.0498585
H           4.1691121    -1.5057121     0.5068627
C           4.3628101    -0.5092992    -1.3550255
H           3.9484790     0.3674120    -1.8702831
H           4.2255197    -1.3496996    -2.0453245
C           5.8692855    -0.2917172    -1.0644144
H           6.4070812    -1.2439232    -1.1524746
H           6.2940913     0.3713013    -1.8284946
C           0.0549231    -1.4032523    -3.1502202
H          -0.5319201    -1.9381706    -3.8850411
N           0.7737159    -2.0706183    -2.1845088
C           1.3778981    -1.1373702    -1.4671769
N           1.0602903     0.1098408    -1.9412533
H           1.3690427     0.9879961    -1.5544319
C           0.2147742    -0.0481004    -3.0216729
H          -0.1664574     0.7946495    -3.5788938
C           2.4698601     1.5219905     0.6527074
H           2.5508606     2.0155717    -0.3265805
H           2.5351799     2.3210058     1.4008446
H           1.4751038     1.0724046     0.7457357
31
111_C11H18N2_11-0-22-21 (150,) energy =    -539.5088638
C           2.3646211    -1.5042859    -0.2723198
H           2.5459604    -2.5806157    -0.3551490
H           1.7972686    -1.3808586     0.6632355
C           6.2500850     0.3182740     0.2468784
H           7.1975757     0.8703137     0.2493881
H           6.3584425    -0.4704399     1.0033449
C           5.0938386     1.2439086     0.6433681
H           5.3196436     1.7726655     1.5778708
H           4.9948170     2.0235906    -0.1268292
C           3.7394855     0.4931480     0.7837197
H           3.6561830     0.1334646     1.8197430
C           3.7324061    -0.7865013    -0.1141062
H           4.3360043    -1.5139477     0.4461095
C           4.4989678    -0.5443692    -1.4281303
H           4.0808787     0.3242235    -1.9539934
H           4.3671067    -1.3933752    -2.1090760
C           6.0046047    -0.3092731    -1.1461095
H           6.5492449    -1.2589763    -1.2173391
H           6.4217937     0.3418527    -1.9244299
C          -0.0849116    -1.4215958    -2.9243035
H          -0.8348434    -1.9298283    -3.5158002
N           0.6294102    -2.0853535    -1.9533395
C           1.4571031    -1.1934806    -1.4343057
N           1.2880884     0.0242426    -2.0405933
H           1.7821058     0.8731014    -1.8148331
C           0.3039178    -0.1094707    -3.0005626
H           0.0004770     0.7143564    -3.6291550
C           2.5856643     1.4852545     0.5765326
H           2.6513367     1.9865975    -0.3997290
H           2.6389952     2.2822328     1.3278541
H           1.5996594     1.0172945     0.6641487
31
111_C11H18N2_11-0-22-21 (165,) energy =    -539.5079772
C           2.3641442    -1.5364682    -0.3335090
H           2.5883327    -2.5958636    -0.5036321
H           1.8118163    -1.5158371     0.6174520
C           6.1868073     0.3780328     0.3337791
H           7.1166687     0.9582943     0.3628641
H           6.2906184    -0.3972687     1.1046487
C           4.9882281     1.2708161     0.6779245
H           5.1663992     1.8210322     1.6102797
H           4.8845653     2.0352403    -0.1068135
C           3.6602089     0.4730463     0.7906296
H           3.5831957     0.0913058     1.8193011
C           3.7074932    -0.7910599    -0.1301472
H           4.3079957    -1.5179532     0.4345245
C           4.5209652    -0.5119674    -1.4093925
H           4.1302820     0.3737196    -1.9285542
H           4.4229012    -1.3415274    -2.1196080
C           6.0108721    -0.2768101    -1.0585577
H           6.5513605    -1.2312861    -1.0833287
H           6.4690702     0.3550722    -1.8295308
C          -0.2508098    -1.2680750    -2.8111494
H          -1.1156342    -1.6956192    -3.3009530
N           0.4122183    -1.9459395    -1.8140770
C           1.4077723    -1.1607462    -1.4384103
N           1.4008536     0.0005530    -2.1652553
H           2.0487435     0.7660397    -2.0685946
C           0.3419714    -0.0558742    -3.0511534
H           0.1311460     0.7448123    -3.7440580
C           2.4702757     1.4230827     0.5906635
H           2.5134336     1.9381556    -0.3783118
H           2.4894703     2.2082403     1.3561307
H           1.5039656     0.9143501     0.6633715
31
111_C11H18N2_11-0-22-21 (180,) energy =    -539.5080575
C           2.3871235    -1.5863355    -0.3929839
H           2.6482401    -2.6166787    -0.6702086
H           1.8655160    -1.6795352     0.5686947
C           6.1663893     0.3803186     0.3754152
H           7.0837903     0.9787531     0.4234538
H           6.2683854    -0.3914288     1.1500296
C           4.9424014     1.2488952     0.6927920
H           5.0892932     1.8007420     1.6295477
H           4.8387849     2.0129217    -0.0922720
C           3.6303780     0.4227713     0.7779458
H           3.5496787     0.0266363     1.8009478
C           3.7150996    -0.8264701    -0.1600441
H           4.3144604    -1.5570553     0.4016192
C           4.5557160    -0.5116903    -1.4138591
H           4.1843471     0.3955184    -1.9113600
H           4.4780442    -1.3184436    -2.1525888
C           6.0345028    -0.2814760    -1.0193780
H           6.5698257    -1.2391753    -1.0228932
H           6.5187614     0.3439469    -1.7795746
C          -0.3957851    -1.1242789    -2.6494953
H          -1.3604457    -1.4495393    -3.0159399
N           0.2338293    -1.7798754    -1.6164124
C           1.3699174    -1.1349444    -1.4129489
N           1.4925242    -0.0928511    -2.2939385
H           2.2683684     0.5471689    -2.3538854
C           0.3641106    -0.0729664    -3.0915190
H           0.2210848     0.6681988    -3.8633977
C           2.4201474     1.3441203     0.5676395
H           2.4311545     1.8201555    -0.4207209
H           2.4367757     2.1530916     1.3082177
H           1.4670812     0.8167730     0.6742483
