28
188_C13H12N2O_2-0-23-24 (-165,) energy =    -687.3616989
N           1.3169487    -1.3893795    -0.7760525
H           1.4119763    -1.3092691    -1.7793344
C           2.4881960    -1.4270157    -0.0271391
N           3.6022830    -1.1079113    -0.7922829
H           3.4427973    -0.8088453    -1.7444986
O           2.5287918    -1.6968869     1.1645289
C           7.6892045    -0.9003115     0.2372900
H           8.7454324    -0.8425903     0.4835664
C           6.7605351    -1.3185023     1.1908314
H           7.0938752    -1.5892263     2.1893313
C           5.3994264    -1.3993787     0.8956013
H           4.6848697    -1.7198937     1.6398265
C           4.9531735    -1.0522948    -0.3890236
C           5.8863146    -0.6313683    -1.3508163
H           5.5465054    -0.3615314    -2.3496016
C           7.2406507    -0.5564473    -1.0389305
H           7.9445262    -0.2276024    -1.7988228
C          -2.6551575    -2.2752379     0.3398894
H          -3.6834272    -2.4977238     0.6096760
C          -1.6901551    -2.0767525     1.3280457
H          -1.9670173    -2.1441599     2.3769300
C          -0.3648044    -1.7878943     1.0028122
H           0.3786687    -1.6418498     1.7730922
C           0.0085179    -1.7005432    -0.3471341
C          -0.9600571    -1.9034306    -1.3433322
H          -0.6758742    -1.8395641    -2.3925933
C          -2.2797826    -2.1848961    -1.0012944
H          -3.0131456    -2.3371161    -1.7887056
28
188_C13H12N2O_2-0-23-24 (-150,) energy =    -687.3612590
N           1.2972071    -1.2563345    -0.7932874
H           1.3985646    -1.2195577    -1.7991785
C           2.4732640    -1.3748375    -0.0524516
N           3.5888253    -1.0230882    -0.8000640
H           3.4216189    -0.6044725    -1.7049532
O           2.5086296    -1.7269339     1.1165456
C           7.6806772    -0.9540214     0.2276939
H           8.7382691    -0.9315642     0.4738959
C           6.7527551    -1.4697422     1.1330671
H           7.0880881    -1.8527545     2.0934064
C           5.3900424    -1.5077484     0.8367604
H           4.6756983    -1.9026609     1.5447043
C           4.9415957    -1.0153824    -0.3985855
C           5.8737337    -0.4963981    -1.3119682
H           5.5319217    -0.1145457    -2.2727606
C           7.2298683    -0.4663495    -0.9999305
H           7.9333212    -0.0594056    -1.7214310
C          -2.6150574    -2.3537274     0.3470904
H          -3.6279444    -2.6295334     0.6258926
C          -1.7002799    -1.9426654     1.3180797
H          -2.0014758    -1.8964498     2.3613149
C          -0.3976779    -1.5802046     0.9772661
H           0.3073369    -1.2690942     1.7354952
C           0.0055929    -1.6399113    -0.3647829
C          -0.9091117    -2.0609018    -1.3412694
H          -0.5975669    -2.1161812    -2.3830191
C          -2.2110734    -2.4073949    -0.9874400
H          -2.9060615    -2.7274507    -1.7591250
28
188_C13H12N2O_2-0-23-24 (-135,) energy =    -687.3603807
N           1.2708659    -1.0969337    -0.7901958
H           1.3688289    -1.0358691    -1.7959431
C           2.4513812    -1.3168768    -0.0721935
N           3.5719080    -0.9357081    -0.7958620
H           3.4106756    -0.4394689    -1.6618685
O           2.4774513    -1.7646975     1.0627881
C           7.6669376    -1.0476863     0.2153579
H           8.7254070    -1.0703301     0.4577826
C           6.7288611    -1.6107204     1.0812822
H           7.0571363    -2.0763620     2.0069317
C           5.3649487    -1.5921311     0.7887131
H           4.6425968    -2.0240220     1.4664250
C           4.9256187    -0.9927375    -0.4017885
C           5.8678288    -0.4260190    -1.2754087
H           5.5326141     0.0388228    -2.2012941
C           7.2251192    -0.4537985    -0.9679409
H           7.9365762    -0.0082525    -1.6581155
C          -2.5631794    -2.4267074     0.3680541
H          -3.5549979    -2.7618062     0.6576704
C          -1.7164253    -1.8356648     1.3082722
H          -2.0488328    -1.7085916     2.3350890
C          -0.4446779    -1.3926518     0.9489642
H           0.2099245    -0.9362989     1.6800575
C          -0.0033677    -1.5555470    -0.3708552
C          -0.8440430    -2.1641061    -1.3117985
H          -0.4958899    -2.3065759    -2.3331539
C          -2.1217141    -2.5848266    -0.9460324
H          -2.7652544    -3.0479915    -1.6891703
28
188_C13H12N2O_2-0-23-24 (-120,) energy =    -687.3589680
N           1.2513029    -0.9568995    -0.7669577
H           1.3465289    -0.8663296    -1.7716465
C           2.4348163    -1.2722240    -0.0822575
N           3.5578483    -0.8504404    -0.7780073
H           3.3986635    -0.2646398    -1.5866650
O           2.4538153    -1.8203484     1.0068926
C           7.6552678    -1.1412641     0.1856487
H           8.7143293    -1.2088584     0.4168956
C           6.7095082    -1.7537942     1.0086160
H           7.0322143    -2.3032870     1.8891599
C           5.3446573    -1.6786609     0.7298979
H           4.6158295    -2.1487417     1.3745747
C           4.9125638    -0.9709853    -0.4023612
C           5.8623828    -0.3544343    -1.2328828
H           5.5326641     0.1939957    -2.1138883
C           7.2204933    -0.4392388    -0.9396565
H           7.9381492     0.0465191    -1.5954554
C          -2.5013883    -2.5011680     0.3987903
H          -3.4707064    -2.8920697     0.6949998
C          -1.7474793    -1.7368901     1.2924785
H          -2.1293480    -1.5317979     2.2889064
C          -0.5082055    -1.2215473     0.9171089
H           0.0780010    -0.6251483     1.6063586
C          -0.0073145    -1.4836778    -0.3629366
C          -0.7482950    -2.2711677    -1.2511340
H          -0.3464339    -2.4960322    -2.2369667
C          -1.9986958    -2.7625934    -0.8762747
H          -2.5708020    -3.3632889    -1.5781879
28
188_C13H12N2O_2-0-23-24 (-105,) energy =    -687.3571720
N           1.2332147    -0.8544522    -0.7394972
H           1.3196986    -0.7145884    -1.7400509
C           2.4178307    -1.2535267    -0.0974855
N           3.5425131    -0.7794101    -0.7561590
H           3.3829503    -0.1065111    -1.4938979
O           2.4326926    -1.9053213     0.9323063
C           7.6409630    -1.2187791     0.1443531
H           8.7002536    -1.3233218     0.3603633
C           6.6913535    -1.8987236     0.9078873
H           7.0112897    -2.5382696     1.7264825
C           5.3261806    -1.7776304     0.6476740
H           4.5940084    -2.2995168     1.2472321
C           4.8975909    -0.9536789    -0.4044916
C           5.8512595    -0.2689292    -1.1750493
H           5.5242903     0.3698451    -1.9940097
C           7.2097012    -0.4008846    -0.9012290
H           7.9304224     0.1391496    -1.5095396
C          -2.4685745    -2.5380044     0.4090960
H          -3.4229910    -2.9650518     0.7042209
C          -1.8305068    -1.6072457     1.2321373
H          -2.2875689    -1.3090140     2.1716771
C          -0.6115865    -1.0477946     0.8518415
H          -0.1115555    -0.3182788     1.4800647
C          -0.0177379    -1.4290545    -0.3543487
C          -0.6402595    -2.3822643    -1.1661427
H          -0.1603259    -2.6983757    -2.0895776
C          -1.8718486    -2.9213033    -0.7928806
H          -2.3552897    -3.6526180    -1.4349422
28
188_C13H12N2O_2-0-23-24 (-90,) energy =    -687.3557341
N           1.2524278    -1.0118116    -0.8376736
H           1.2446263    -0.0134516    -1.0153294
C           2.4500881    -1.5105785    -0.3038594
N           3.5475168    -0.7717639    -0.7234220
H           3.3826819    -0.1031760    -1.4639017
O           2.5010922    -2.4948485     0.4136492
C           7.6513294    -1.2157100     0.1503970
H           8.7112198    -1.3142211     0.3663916
C           6.7176402    -2.0269892     0.7963175
H           7.0508802    -2.7650665     1.5213958
C           5.3522523    -1.9172954     0.5324098
H           4.6337899    -2.5548278     1.0277567
C           4.9064984    -0.9704659    -0.4029166
C           5.8441526    -0.1524175    -1.0539623
H           5.5037028     0.5852355    -1.7789440
C           7.2032487    -0.2759587    -0.7792639
H           7.9113816     0.3666595    -1.2957500
C          -2.4981857    -2.4788483     0.4518874
H          -3.4686050    -2.8499849     0.7698569
C          -1.9362369    -1.3645830     1.0775730
H          -2.4653479    -0.8662957     1.8853300
C          -0.6872221    -0.8916572     0.6741098
H          -0.2385339    -0.0338515     1.1689045
C          -0.0002290    -1.5270800    -0.3642978
C          -0.5700171    -2.6314026    -1.0019126
H          -0.0313763    -3.1050857    -1.8165507
C          -1.8106116    -3.1132544    -0.5847191
H          -2.2456303    -3.9779784    -1.0782818
28
188_C13H12N2O_2-0-23-24 (-75,) energy =    -687.3573910
N           1.2466700    -0.9660826    -0.7734333
H           1.2451291     0.0445989    -0.8547194
C           2.4532287    -1.5168293    -0.3094351
N           3.5429475    -0.7330961    -0.6575429
H           3.3665992     0.0237386    -1.3045657
O           2.5153699    -2.5754303     0.2918506
C           7.6618339    -1.2762352     0.0779406
H           8.7255231    -1.3994218     0.2598132
C           6.7397645    -2.1618050     0.6370562
H           7.0859371    -2.9829232     1.2594673
C           5.3696225    -2.0218353     0.4152345
H           4.6599119    -2.7152375     0.8435123
C           4.9077602    -0.9678063    -0.3880771
C           5.8334773    -0.0745789    -0.9513171
H           5.4803072     0.7462979    -1.5734633
C           7.1973914    -0.2294332    -0.7199877
H           7.8963208     0.4726988    -1.1667656
C          -2.5165117    -2.4672554     0.4236045
H          -3.4921155    -2.8463010     0.7148288
C          -2.0716413    -1.2347924     0.9031967
H          -2.6973780    -0.6492507     1.5712955
C          -0.8148157    -0.7523068     0.5359876
H          -0.4593968     0.2002500     0.9227095
C          -0.0021553    -1.4962563    -0.3246794
C          -0.4570737    -2.7199523    -0.8252631
H           0.1743590    -3.2805591    -1.5063152
C          -1.7028413    -3.2089401    -0.4362818
H          -2.0457302    -4.1661897    -0.8193880
28
188_C13H12N2O_2-0-23-24 (-60,) energy =    -687.3592367
N           1.2507884    -0.9302063    -0.6650051
H           1.2560527     0.0824943    -0.6972625
C           2.4652126    -1.5223271    -0.2864081
N           3.5478475    -0.7072822    -0.5796716
H           3.3591829     0.1172482    -1.1337302
O           2.5426035    -2.6348648     0.2073615
C           7.6826398    -1.3185867    -0.0034613
H           8.7502921    -1.4584341     0.1387207
C           6.7734116    -2.2575918     0.4849023
H           7.1336189    -3.1373629     1.0118557
C           5.3983703    -2.0972147     0.3125469
H           4.6987710    -2.8310195     0.6865355
C           4.9184471    -0.9673457    -0.3675600
C           5.8312481    -0.0201899    -0.8591991
H           5.4640767     0.8594108    -1.3856508
C           7.2001883    -0.1962223    -0.6785277
H           7.8888311     0.5486968    -1.0682908
C          -2.5399031    -2.4639806     0.3814950
H          -3.5230449    -2.8504668     0.6347336
C          -2.1875712    -1.1592002     0.7270414
H          -2.8933500    -0.5216217     1.2525838
C          -0.9212833    -0.6673803     0.4098396
H          -0.6424186     0.3451060     0.6949126
C          -0.0019244    -1.4749272    -0.2685977
C          -0.3618600    -2.7766278    -0.6376828
H           0.3501651    -3.3944898    -1.1720001
C          -1.6200103    -3.2681839    -0.2959923
H          -1.8879297    -4.2835646    -0.5753373
28
188_C13H12N2O_2-0-23-24 (-45,) energy =    -687.3605875
N           1.2511939    -0.9078103    -0.5224030
H           1.2601009     0.1043799    -0.5308635
C           2.4717069    -1.5299394    -0.2409520
N           3.5469472    -0.6904112    -0.4928607
H           3.3452078     0.1860146    -0.9547906
O           2.5675197    -2.6820735     0.1506074
C           7.6965737    -1.3438026    -0.0976776
H           8.7679026    -1.4937722    -0.0007454
C           6.8014620    -2.3194801     0.3423990
H           7.1764231    -3.2381431     0.7860967
C           5.4219472    -2.1467638     0.2271590
H           4.7335947    -2.9085773     0.5639222
C           4.9228470    -0.9666630    -0.3453608
C           5.8215705     0.0173037    -0.7884536
H           5.4399488     0.9356534    -1.2319909
C           7.1951464    -0.1714084    -0.6652920
H           7.8724690     0.6028090    -1.0157797
C          -2.5877939    -2.4467325     0.3141368
H          -3.5833030    -2.8313585     0.5163021
C          -2.2915574    -1.1032975     0.5457761
H          -3.0539818    -0.4314511     0.9307949
C          -1.0108915    -0.6136619     0.2941850
H          -0.7810929     0.4323126     0.4891652
C          -0.0133376    -1.4622026    -0.2034987
C          -0.3131602    -2.8080378    -0.4558113
H           0.4561662    -3.4635173    -0.8423781
C          -1.5918019    -3.2905438    -0.1823949
H          -1.8121902    -4.3377055    -0.3719579
28
188_C13H12N2O_2-0-23-24 (-30,) energy =    -687.3613548
N           1.2612011    -0.9083594    -0.3766586
H           1.2722360     0.1030736    -0.3735264
C           2.4862459    -1.5482538    -0.1955998
N           3.5535954    -0.6869841    -0.4112581
H           3.3400375     0.2263388    -0.7883433
O           2.6007562    -2.7282691     0.0991104
C           7.7142851    -1.3505489    -0.1810437
H           8.7882772    -1.5023645    -0.1251629
C           6.8341146    -2.3606355     0.2086052
H           7.2235601    -3.3082839     0.5715006
C           5.4515168    -2.1861692     0.1446860
H           4.7752707    -2.9745547     0.4422499
C           4.9334183    -0.9686371    -0.3232802
C           5.8172679     0.0497957    -0.7156986
H           5.4213559     0.9971345    -1.0784516
C           7.1942040    -0.1412419    -0.6448257
H           7.8594602     0.6603573    -0.9544665
C          -2.6241551    -2.4306946     0.2494260
H          -3.6314452    -2.8075895     0.4011658
C          -2.3543684    -1.0672235     0.3732230
H          -3.1500109    -0.3703532     0.6227985
C          -1.0603406    -0.5877677     0.1846148
H          -0.8561880     0.4764094     0.2910176
C          -0.0154946    -1.4664328    -0.1385577
C          -0.2849000    -2.8362163    -0.2764179
H           0.5178089    -3.5175730    -0.5212639
C          -1.5830326    -3.3029042    -0.0727625
H          -1.7792304    -4.3669498    -0.1755410
28
188_C13H12N2O_2-0-23-24 (-15,) energy =    -687.3617235
N           1.2692490    -0.9275288    -0.2629022
H           1.2795270     0.0829779    -0.2908823
C           2.4962539    -1.5732821    -0.1575907
N           3.5589776    -0.6988761    -0.3434015
H           3.3389629     0.2497494    -0.6141160
O           2.6226460    -2.7693479     0.0619720
C           7.7257731    -1.3556982    -0.2295316
H           8.8011739    -1.5054498    -0.2032986
C           6.8559815    -2.4071238     0.0611687
H           7.2550175    -3.3854773     0.3161285
C           5.4716482    -2.2364335     0.0327262
H           4.8035690    -3.0559884     0.2545163
C           4.9409022    -0.9792968    -0.2955938
C           5.8146078     0.0808818    -0.5882641
H           5.4091027     1.0589424    -0.8428689
C           7.1932287    -0.1073305    -0.5553575
H           7.8500708     0.7271951    -0.7858759
C          -2.6508785    -2.4244703     0.1858045
H          -3.6668378    -2.7926438     0.2949033
C          -2.3933935    -1.0528824     0.1686140
H          -3.2078323    -0.3397815     0.2644202
C          -1.0895347    -0.5849619     0.0315110
H          -0.8986384     0.4870899     0.0218074
C          -0.0173228    -1.4830835    -0.0937950
C          -0.2720088    -2.8631785    -0.0826915
H           0.5497664    -3.5587264    -0.1735190
C          -1.5839506    -3.3149436     0.0606023
H          -1.7682499    -4.3860593     0.0711858
28
188_C13H12N2O_2-0-23-24 (0,) energy =    -687.3618455
N           1.2742440    -0.9236526    -0.1686324
H           1.2793662     0.0784301    -0.2997392
C           2.5009631    -1.5732087    -0.1218145
N           3.5631688    -0.6902712    -0.2667592
H           3.3452022     0.2894448    -0.3852052
O           2.6305305    -2.7799146     0.0296339
C           7.7285020    -1.3645887    -0.3250293
H           8.8034791    -1.5185855    -0.3425294
C           6.8602570    -2.4424125    -0.1490700
H           7.2601227    -3.4458561    -0.0281422
C           5.4764639    -2.2667310    -0.1232739
H           4.8096280    -3.1056036     0.0134290
C           4.9444920    -0.9771899    -0.2782239
C           5.8167576     0.1095538    -0.4556304
H           5.4104956     1.1126655    -0.5766092
C           7.1947929    -0.0840368    -0.4783512
H           7.8502834     0.7716306    -0.6168573
C          -2.6583367    -2.4193792     0.1569314
H          -3.6774452    -2.7859468     0.2384461
C          -2.4086183    -1.0591518    -0.0318288
H          -3.2324199    -0.3535509    -0.0988337
C          -1.1013813    -0.5930266    -0.1360099
H          -0.9172944     0.4701562    -0.2832351
C          -0.0164836    -1.4815065    -0.0530660
C          -0.2626028    -2.8502034     0.1365890
H           0.5688318    -3.5369759     0.2005706
C          -1.5793008    -3.2999781     0.2389189
H          -1.7568489    -4.3622188     0.3857048
28
188_C13H12N2O_2-0-23-24 (15,) energy =    -687.3617229
N           1.2752751    -0.9026659    -0.0775689
H           1.2787252     0.0789596    -0.3192969
C           2.4985469    -1.5638876    -0.0889427
N           3.5632594    -0.6806726    -0.2104799
H           3.3529836     0.3075970    -0.1840559
O           2.6210664    -2.7765369     0.0070040
C           7.7197662    -1.3803927    -0.4112479
H           8.7925417    -1.5411050    -0.4653272
C           6.8418037    -2.4636788    -0.3641884
H           7.2317909    -3.4780856    -0.3814329
C           5.4606881    -2.2794878    -0.2941023
H           4.7865301    -3.1227213    -0.2533157
C           4.9416964    -0.9756763    -0.2700060
C           5.8236057     0.1165472    -0.3176095
H           5.4271680     1.1306420    -0.3000463
C           7.1988691    -0.0856775    -0.3873367
H           7.8622621     0.7743621    -0.4227536
C          -2.6525931    -2.4317047     0.1343274
H          -3.6701760    -2.8071306     0.1910000
C          -2.4064477    -1.1056551    -0.2246116
H          -3.2316077    -0.4357123    -0.4510784
C          -1.1006034    -0.6291378    -0.2988463
H          -0.9189097     0.4065035    -0.5821686
C          -0.0147071    -1.4721424    -0.0122129
C          -0.2576149    -2.8048196     0.3546968
H           0.5743842    -3.4591195     0.5714942
C          -1.5720739    -3.2672662     0.4193553
H          -1.7473116    -4.3022233     0.7013532
28
188_C13H12N2O_2-0-23-24 (30,) energy =    -687.3613545
N           1.2744949    -0.8610450     0.0349804
H           1.2774727     0.1134335    -0.2363382
C           2.4896347    -1.5382376    -0.0578356
N           3.5617977    -0.6607396    -0.1455281
H           3.3662867     0.3207049    -0.0023392
O           2.5934626    -2.7553421    -0.0443253
C           7.7019573    -1.3994045    -0.4878034
H           8.7707178    -1.5705427    -0.5776928
C           6.8065918    -2.4685396    -0.5321467
H           7.1787742    -3.4820358    -0.6574711
C           5.4302941    -2.2708157    -0.4184091
H           4.7424429    -3.1035356    -0.4474615
C           4.9346465    -0.9680771    -0.2546094
C           5.8338194     0.1099154    -0.2102997
H           5.4550217     1.1231217    -0.0849810
C           7.2040824    -0.1056025    -0.3254904
H           7.8815891     0.7432555    -0.2875979
C          -2.6321541    -2.4548049     0.0984580
H          -3.6441438    -2.8486363     0.1209651
C          -2.3828195    -1.1734152    -0.3944296
H          -3.1998555    -0.5576617    -0.7608154
C          -1.0827921    -0.6745762    -0.4275937
H          -0.8955945     0.3232057    -0.8211562
C          -0.0106319    -1.4494185     0.0396269
C          -0.2581452    -2.7334216     0.5477035
H           0.5645692    -3.3367983     0.9050488
C          -1.5635347    -3.2232793     0.5632137
H          -1.7432417    -4.2218570     0.9527610
28
188_C13H12N2O_2-0-23-24 (45,) energy =    -687.3605881
N           1.2782896    -0.8225863     0.1734933
H           1.2797897     0.1560695    -0.0853244
C           2.4817425    -1.5085002    -0.0201328
N           3.5645352    -0.6425388    -0.0664973
H           3.3877082     0.3238969     0.1721757
O           2.5598938    -2.7234339    -0.1077566
C           7.6822553    -1.4128060    -0.5702586
H           8.7455267    -1.5922924    -0.7001438
C           6.7684186    -2.4621508    -0.6731777
H           7.1205639    -3.4684582    -0.8847039
C           5.3988123    -2.2533414    -0.5095091
H           4.6962810    -3.0709564    -0.5839792
C           4.9292585    -0.9598142    -0.2341980
C           5.8468190     0.0983526    -0.1311251
H           5.4878535     1.1044308     0.0802199
C           7.2101377    -0.1280060    -0.2972304
H           7.9024815     0.7053210    -0.2121026
C          -2.5959567    -2.4887950     0.0359095
H          -3.5996079    -2.9034367     0.0110324
C          -2.3280075    -1.2551340    -0.5577993
H          -3.1213112    -0.6994501    -1.0505202
C          -1.0372079    -0.7294806    -0.5321578
H          -0.8305150     0.2273283    -1.0083061
C          -0.0001365    -1.4289480     0.0987706
C          -0.2698548    -2.6596014     0.7133673
H           0.5294065    -3.2002649     1.2031749
C          -1.5603395    -3.1836507     0.6645606
H          -1.7579697    -4.1430206     1.1352780
28
188_C13H12N2O_2-0-23-24 (60,) energy =    -687.3592366
N           1.2843661    -0.8065947     0.3179536
H           1.2826701     0.1792613     0.0838840
C           2.4751420    -1.4880586     0.0235505
N           3.5678147    -0.6346296     0.0184275
H           3.4100853     0.3077128     0.3493907
O           2.5284680    -2.6915131    -0.1671658
C           7.6582857    -1.4127052    -0.6631153
H           8.7147797    -1.5945971    -0.8374402
C           6.7262367    -2.4383848    -0.8249675
H           7.0572657    -3.4285282    -1.1273934
C           5.3649961    -2.2260306    -0.6056645
H           4.6480324    -3.0256338    -0.7255630
C           4.9228407    -0.9533775    -0.2128450
C           5.8585883     0.0810089    -0.0502133
H           5.5205971     1.0709251     0.2522646
C           7.2133092    -0.1485833    -0.2730124
H           7.9203167     0.6659876    -0.1401103
C          -2.5556198    -2.5245210    -0.0296995
H          -3.5504096    -2.9543434    -0.1052770
C          -2.2396600    -1.3577690    -0.7260146
H          -2.9857549    -0.8721843    -1.3492104
C          -0.9589717    -0.8121925    -0.6357064
H          -0.7095952     0.0887977    -1.1926698
C           0.0122723    -1.4241942     0.1641553
C          -0.3097036    -2.5817974     0.8828868
H           0.4430028    -3.0461127     1.5090277
C          -1.5839981    -3.1335360     0.7684068
H          -1.8229061    -4.0388355     1.3199294
28
188_C13H12N2O_2-0-23-24 (75,) energy =    -687.3573897
N           1.2938750    -0.8191351     0.4350948
H           1.2878558     0.1789473     0.2564729
C           2.4715976    -1.4795437     0.0466358
N           3.5736734    -0.6397392     0.0996117
H           3.4333545     0.2639834     0.5309945
O           2.5040969    -2.6588818    -0.2603798
C           7.6382889    -1.3868275    -0.7501535
H           8.6883326    -1.5611571    -0.9662670
C           6.6906367    -2.3830330    -0.9879948
H           7.0029266    -3.3425312    -1.3921099
C           5.3374266    -2.1797934    -0.7166698
H           4.6082026    -2.9571747    -0.8950662
C           4.9193002    -0.9468489    -0.1926119
C           5.8707963     0.0578095     0.0468838
H           5.5514466     1.0170230     0.4513211
C           7.2173076    -0.1622566    -0.2291959
H           7.9368356     0.6287483    -0.0350540
C          -2.5261946    -2.5480598    -0.0803116
H          -3.5153519    -2.9815922    -0.1983016
C          -2.1266873    -1.4831341    -0.8885680
H          -2.8016645    -1.0836867    -1.6406325
C          -0.8528830    -0.9322690    -0.7428310
H          -0.5335571    -0.1134211    -1.3837321
C           0.0227816    -1.4370310     0.2230581
C          -0.3851964    -2.4881676     1.0498115
H           0.2963963    -2.8602190     1.8072914
C          -1.6494106    -3.0509531     0.8839990
H          -1.9563808    -3.8754422     1.5216951
28
188_C13H12N2O_2-0-23-24 (90,) energy =    -687.3557330
N           1.2982600    -0.8447828     0.5051140
H           1.2904505     0.1663745     0.4289908
C           2.4613354    -1.4713740     0.0331521
N           3.5774045    -0.6583836     0.1709683
H           3.4552436     0.1847696     0.7155525
O           2.4727634    -2.6070765    -0.4099872
C           7.6157194    -1.3430892    -0.8400360
H           8.6591144    -1.5026629    -1.0960797
C           6.6497420    -2.2896931    -1.1835223
H           6.9403056    -3.1949120    -1.7105163
C           5.3046500    -2.1052060    -0.8633175
H           4.5614909    -2.8456279    -1.1230616
C           4.9131549    -0.9427123    -0.1810993
C           5.8835496     0.0116419     0.1651847
H           5.5853592     0.9162346     0.6928660
C           7.2218532    -0.1887778    -0.1612806
H           7.9562341     0.5623345     0.1174756
C          -2.5158624    -2.5654032    -0.1098407
H          -3.5014845    -2.9990953    -0.2549896
C          -2.0098243    -1.6502504    -1.0346850
H          -2.5988110    -1.3706242    -1.9039274
C          -0.7415044    -1.0984871    -0.8514058
H          -0.3365909    -0.3972904    -1.5768864
C           0.0213498    -1.4538094     0.2647220
C          -0.4912019    -2.3568163     1.1987471
H           0.1073261    -2.6118123     2.0675584
C          -1.7520927    -2.9203661     1.0038218
H          -2.1427694    -3.6287576     1.7291742
28
188_C13H12N2O_2-0-23-24 (105,) energy =    -687.3571720
N           1.2721869    -0.7179054     0.3679865
H           1.4266196    -0.3232470     1.2891057
C           2.4128314    -1.2791647    -0.2301600
N           3.5754811    -0.6596089     0.2035321
H           3.4608066     0.1825887     0.7513191
O           2.3629026    -2.1751192    -1.0550698
C           7.6054052    -1.3501789    -0.8372146
H           8.6480426    -1.5157565    -1.0925159
C           6.6117200    -2.1963838    -1.3308131
H           6.8804056    -3.0282582    -1.9767704
C           5.2668252    -2.0009985    -1.0158907
H           4.4996133    -2.6537473    -1.4073268
C           4.9045367    -0.9296788    -0.1848877
C           5.9026579    -0.0770304     0.3140033
H           5.6270070     0.7542258     0.9610427
C           7.2399872    -0.2863832    -0.0107828
H           7.9958959     0.3864722     0.3854427
C          -2.4851788    -2.6064740    -0.0466693
H          -3.4538891    -3.0865148    -0.1541413
C          -1.9144954    -1.9254219    -1.1243094
H          -2.4385906    -1.8754711    -2.0747898
C          -0.6771897    -1.2980522    -0.9870201
H          -0.2289862    -0.7601282    -1.8156497
C           0.0026904    -1.3606173     0.2323386
C          -0.5528370    -2.0665332     1.3039024
H          -0.0071432    -2.1386091     2.2419970
C          -1.8024693    -2.6721913     1.1687839
H          -2.2332710    -3.2087556     2.0097754
28
188_C13H12N2O_2-0-23-24 (120,) energy =    -687.3589678
N           1.2905591    -0.8042529     0.4249459
H           1.4550876    -0.4607875     1.3639126
C           2.4256606    -1.2969414    -0.2370665
N           3.5908229    -0.7211912     0.2463406
H           3.4838743     0.0528993     0.8880342
O           2.3725752    -2.1061546    -1.1477372
C           7.6118833    -1.2868123    -0.8992285
H           8.6524100    -1.4211900    -1.1801340
C           6.6159656    -2.0828429    -1.4661997
H           6.8806977    -2.8440727    -2.1954967
C           5.2737606    -1.9262598    -1.1196059
H           4.5053404    -2.5404200    -1.5669722
C           4.9166195    -0.9461035    -0.1808977
C           5.9169623    -0.1441549     0.3920102
H           5.6454082     0.6164066     1.1223938
C           7.2515070    -0.3139464     0.0344965
H           8.0092344     0.3184578     0.4894420
C          -2.5204441    -2.5611680    -0.0369491
H          -3.5046589    -3.0057615    -0.1542873
C          -1.8381074    -2.0600623    -1.1480655
H          -2.2905689    -2.1146089    -2.1345049
C          -0.5801944    -1.4773404    -1.0058267
H          -0.0492200    -1.0841198    -1.8648080
C           0.0114582    -1.4060540     0.2602184
C          -0.6581523    -1.9309083     1.3711538
H          -0.1862966    -1.8983266     2.3510742
C          -1.9273697    -2.4903781     1.2240689
H          -2.4435594    -2.8845509     2.0952797
28
188_C13H12N2O_2-0-23-24 (135,) energy =    -687.3603814
N           1.3148874    -0.9398491     0.4768944
H           1.4840780    -0.6246325     1.4239959
C           2.4449988    -1.3495277    -0.2395628
N           3.6081190    -0.7990157     0.2787201
H           3.5008132    -0.0875842     0.9890848
O           2.3972964    -2.0800108    -1.2159892
C           7.6246246    -1.2028835    -0.9493329
H           8.6640102    -1.2962645    -1.2503235
C           6.6346197    -1.9623904    -1.5737210
H           6.9028573    -2.6537672    -2.3683620
C           5.2939418    -1.8573589    -1.2025221
H           4.5306368    -2.4433006    -1.6941035
C           4.9320801    -0.9675231    -0.1794225
C           5.9267184    -0.2027148     0.4513890
H           5.6516054     0.4875874     1.2473067
C           7.2597710    -0.3200824     0.0683469
H           8.0127752     0.2823694     0.5694104
C          -2.5766486    -2.4927450    -0.0285741
H          -3.5827684    -2.8832072    -0.1516618
C          -1.8020718    -2.1736519    -1.1459740
H          -2.2054329    -2.3150990    -2.1451170
C          -0.5129885    -1.6634107    -1.0024945
H           0.0853758    -1.4184665    -1.8704105
C           0.0194900    -1.4813064     0.2807195
C          -0.7485991    -1.8170472     1.4031122
H          -0.3305998    -1.6922728     2.4003284
C          -2.0441736    -2.3074865     1.2476564
H          -2.6306452    -2.5559661     2.1281078
28
188_C13H12N2O_2-0-23-24 (150,) energy =    -687.3612588
N           1.3431584    -1.0907537     0.5187041
H           1.5141338    -0.7966799     1.4714599
C           2.4659210    -1.4063991    -0.2466677
N           3.6270095    -0.8830221     0.3056824
H           3.5201813    -0.2435842     1.0814019
O           2.4235558    -2.0486411    -1.2847129
C           7.6363869    -1.1170621    -0.9883913
H           8.6740081    -1.1679998    -1.3052092
C           6.6525882    -1.8409268    -1.6628337
H           6.9239665    -2.4617058    -2.5127642
C           5.3142712    -1.7893675    -1.2723173
H           4.5561397    -2.3474221    -1.8026487
C           4.9482934    -0.9909453    -0.1777101
C           5.9367864    -0.2618995     0.5033088
H           5.6588490     0.3578941     1.3544003
C           7.2675257    -0.3251559     0.1001544
H           8.0155829     0.2481352     0.6412239
C          -2.6280870    -2.4115904    -0.0235881
H          -3.6551506    -2.7413043    -0.1506717
C          -1.7875878    -2.2729744    -1.1294493
H          -2.1607522    -2.4947870    -2.1258272
C          -0.4680511    -1.8460499    -0.9854182
H           0.1787687    -1.7474461    -1.8460167
C           0.0286290    -1.5608639     0.2949693
C          -0.8114589    -1.7076864     1.4085855
H          -0.4276734    -1.4950390     2.4050108
C          -2.1314685    -2.1225580     1.2480053
H          -2.7677638    -2.2266533     2.1227827
28
188_C13H12N2O_2-0-23-24 (165,) energy =    -687.3616976
N           1.3466044    -1.6051468    -0.8128002
H           1.4139948    -1.3239791    -1.7815429
C           2.4987974    -1.5049440    -0.0403467
N           3.6223436    -1.2546847    -0.8172628
H           3.5057238    -1.2672670    -1.8211833
O           2.5199782    -1.6339873     1.1751304
C           7.6615000    -0.7009848     0.2711613
H           8.7055580    -0.5550921     0.5324272
C           6.6976613    -0.8649023     1.2665010
H           6.9911051    -0.8470893     2.3129148
C           5.3514881    -1.0539579     0.9528384
H           4.6107318    -1.1848910     1.7282978
C           4.9568760    -1.0804449    -0.3938030
C           5.9253909    -0.9152805    -1.3976176
H           5.6254602    -0.9339705    -2.4442995
C           7.2641851    -0.7277106    -1.0665990
H           7.9962464    -0.6025670    -1.8599721
C          -2.6643099    -2.2094615     0.3513340
H          -3.7016691    -2.3659946     0.6324141
C          -1.6377731    -2.4557715     1.2638168
H          -1.8752323    -2.8076592     2.2643882
C          -0.2991493    -2.2631655     0.9221097
H           0.4902808    -2.4495329     1.6358918
C           0.0230068    -1.8062789    -0.3650604
C          -1.0084869    -1.5544373    -1.2839182
H          -0.7648872    -1.1975037    -2.2834416
C          -2.3389936    -1.7576046    -0.9284497
H          -3.1211208    -1.5573679    -1.6559045
28
188_C13H12N2O_2-0-23-24 (180,) energy =    -687.3618457
N           1.3341357    -1.5017390    -0.7834472
H           1.4150540    -1.3264639    -1.7754704
C           2.4982447    -1.4687758    -0.0266755
N           3.6157287    -1.1899080    -0.8028290
H           3.4743789    -1.0465704    -1.7932107
O           2.5350041    -1.6629284     1.1802994
C           7.6829937    -0.7957133     0.2506996
H           8.7341855    -0.6905810     0.5027732
C           6.7434325    -1.0955903     1.2375222
H           7.0631880    -1.2257399     2.2681680
C           5.3885792    -1.2351412     0.9353641
H           4.6661481    -1.4675134     1.7042318
C           4.9597416    -1.0699586    -0.3908108
C           5.9039275    -0.7679072    -1.3861076
H           5.5778979    -0.6383072    -2.4170438
C           7.2517699    -0.6326662    -1.0667304
H           7.9642699    -0.3987647    -1.8532737
C          -2.6679157    -2.2378225     0.3345818
H          -3.7034703    -2.4248990     0.6033356
C          -1.6671424    -2.2631701     1.3063415
H          -1.9229220    -2.4715742     2.3419865
C          -0.3310192    -2.0256809     0.9826432
H           0.4389752    -2.0466256     1.7400969
C           0.0155486    -1.7550871    -0.3502441
C          -0.9904080    -1.7289677    -1.3303975
H          -0.7283102    -1.5195549    -2.3664337
C          -2.3183980    -1.9682250    -0.9895560
H          -3.0797056    -1.9428932    -1.7646586
