28
188_C13H12N2O_2-3-12-10 (-165,) energy =    -687.3616980
N           1.3148168    -1.1875009     0.4411879
H           1.3790486    -0.6119089     1.2695449
C           2.4932393    -1.4564493    -0.2427692
N           3.6073450    -0.9733674     0.4350870
H           3.4684204    -0.6506410     1.3830018
O           2.5457004    -2.0379401    -1.3168266
C           7.7079045    -1.2583040    -0.5203272
H           8.7673766    -1.3205577    -0.7511418
C           7.2828202    -0.8971377     0.7590318
H           8.0085494    -0.6755032     1.5369749
C           5.9240283    -0.8222765     1.0522388
H           5.6020849    -0.5440349     2.0545874
C           4.9639376    -1.1016804     0.0663843
C           5.3866080    -1.4627771    -1.2221323
H           4.6521779    -1.6880048    -1.9819271
C           6.7520014    -1.5389694    -1.4972986
H           7.0672392    -1.8219102    -2.4982582
C          -2.6915113    -2.1330551    -0.4874267
H          -3.7282381    -2.3685519    -0.7095828
C          -2.3641631    -1.3663916     0.6320515
H          -3.1442428    -0.9975907     1.2927133
C          -1.0344147    -1.0664958     0.9130835
H          -0.7896476    -0.4681732     1.7894123
C          -0.0048318    -1.5288226     0.0769015
C          -0.3288912    -2.3003854    -1.0498339
H           0.4591026    -2.6546245    -1.6985117
C          -1.6670404    -2.5914001    -1.3162367
H          -1.9055424    -3.1890777    -2.1921886
28
188_C13H12N2O_2-3-12-10 (-150,) energy =    -687.3612585
N           1.3096304    -1.1000765     0.4237315
H           1.3575893    -0.4272628     1.1767589
C           2.4955934    -1.3964109    -0.2340637
N           3.5976579    -0.8363827     0.4122999
H           3.4584402    -0.5533231     1.3735337
O           2.5699263    -2.0503822    -1.2629163
C           7.6855761    -1.3453793    -0.5044315
H           8.7414557    -1.4649549    -0.7292558
C           7.2636484    -1.1217196     0.8066715
H           7.9880071    -1.0669689     1.6149225
C           5.9080553    -0.9769539     1.0925550
H           5.5858385    -0.8141806     2.1197124
C           4.9536374    -1.0387816     0.0664449
C           5.3739509    -1.2587203    -1.2534686
H           4.6411609    -1.3201791    -2.0459501
C           6.7331443    -1.4148815    -1.5226123
H           7.0476794    -1.5887240    -2.5483021
C          -2.6717821    -2.1793562    -0.4649734
H          -3.7022126    -2.4489397    -0.6774817
C          -2.3714856    -1.2948951     0.5721587
H          -3.1664994    -0.8674025     1.1773179
C          -1.0497292    -0.9515177     0.8413055
H          -0.8256917    -0.2614711     1.6533363
C          -0.0017180    -1.4873868     0.0751025
C          -0.2986026    -2.3778123    -0.9682442
H           0.5041788    -2.7879812    -1.5638512
C          -1.6289123    -2.7109415    -1.2242579
H          -1.8464922    -3.4005912    -2.0357008
28
188_C13H12N2O_2-3-12-10 (-135,) energy =    -687.3603808
N           1.3073209    -1.0178361     0.3953044
H           1.3350758    -0.2831749     1.0893661
C           2.5045495    -1.3337580    -0.2302170
N           3.5892698    -0.6821141     0.3669240
H           3.4501200    -0.3760233     1.3218077
O           2.6086710    -2.0659063    -1.2009907
C           7.6509800    -1.4291170    -0.5042266
H           8.6994282    -1.6111652    -0.7222026
C           7.2154741    -1.3169577     0.8164921
H           7.9210846    -1.4146159     1.6371533
C           5.8675510    -1.0946641     1.0940019
H           5.5290631    -1.0270951     2.1262502
C           4.9438387    -0.9557371     0.0499933
C           5.3782858    -1.0648489    -1.2775834
H           4.6623385    -0.9724155    -2.0839204
C           6.7249986    -1.3075792    -1.5425777
H           7.0525969    -1.3945954    -2.5750884
C          -2.6398938    -2.2600095    -0.4287506
H          -3.6620526    -2.5701392    -0.6253449
C          -2.3686183    -1.2901269     0.5376161
H          -3.1781631    -0.8359229     1.1027407
C          -1.0574537    -0.8947046     0.7866206
H          -0.8556722    -0.1379224     1.5431164
C           0.0083858    -1.4635445     0.0706595
C          -0.2589417    -2.4400333    -0.9012262
H           0.5580366    -2.8757851    -1.4582229
C          -1.5790003    -2.8241641    -1.1380468
H          -1.7741098    -3.5802109    -1.8941784
28
188_C13H12N2O_2-3-12-10 (-120,) energy =    -687.3589667
N           1.3065195    -0.9372924     0.3574573
H           1.3136257    -0.1383511     0.9771902
C           2.5139896    -1.2794689    -0.2322617
N           3.5817555    -0.5469241     0.3088673
H           3.4404254    -0.2139892     1.2554138
O           2.6452863    -2.0889853    -1.1347173
C           7.6105581    -1.5138340    -0.5021631
H           8.6493913    -1.7547370    -0.7093248
C           7.1352236    -1.5229503     0.8096860
H           7.7997145    -1.7767698     1.6311732
C           5.7980046    -1.2260800     1.0727951
H           5.4216707    -1.2570559     2.0932818
C           4.9353136    -0.8828702     0.0259249
C           5.4085614    -0.8748174    -1.2909272
H           4.7317961    -0.6248688    -2.0995799
C           6.7400194    -1.1966746    -1.5475042
H           7.1006171    -1.1911476    -2.5725333
C          -2.6050604    -2.3372946    -0.3741233
H          -3.6187233    -2.6867005    -0.5474830
C          -2.3621386    -1.2834487     0.5082998
H          -3.1852663    -0.8027294     1.0302393
C          -1.0620442    -0.8374290     0.7283650
H          -0.8812171    -0.0156407     1.4194982
C           0.0203309    -1.4391495     0.0663830
C          -0.2182129    -2.4996747    -0.8212893
H           0.6120187    -2.9604999    -1.3371752
C          -1.5274483    -2.9338695    -1.0297765
H          -1.7006664    -3.7549399    -1.7206333
28
188_C13H12N2O_2-3-12-10 (-105,) energy =    -687.3571724
N           1.3041167    -0.8737477     0.3137502
H           1.2952512    -0.0089473     0.8377326
C           2.5228101    -1.2583573    -0.2253297
N           3.5765065    -0.4600543     0.2506193
H           3.4323837    -0.0762099     1.1779765
O           2.6768460    -2.1515781    -1.0402352
C           7.5830664    -1.5660389    -0.5101259
H           8.6145405    -1.8443033    -0.7075453
C           7.0458920    -1.7291054     0.7676207
H           7.6541551    -2.1408946     1.5683848
C           5.7175927    -1.3833496     1.0180825
H           5.2884971    -1.5336320     2.0061571
C           4.9316796    -0.8381693    -0.0018813
C           5.4667668    -0.6790261    -1.2830712
H           4.8424139    -0.2689552    -2.0697603
C           6.7871876    -1.0485077    -1.5345769
H           7.1975538    -0.9241654    -2.5329590
C          -2.5798939    -2.3974268    -0.3139118
H          -3.5862838    -2.7780211    -0.4622913
C          -2.3623815    -1.2562157     0.4597195
H          -3.1985874    -0.7377342     0.9212924
C          -1.0713431    -0.7707730     0.6476800
H          -0.9110774     0.1190293     1.2544787
C           0.0278035    -1.4195338     0.0619763
C          -0.1855458    -2.5676580    -0.7164687
H           0.6577100    -3.0643557    -1.1748440
C          -1.4858799    -3.0406327    -0.8939892
H          -1.6390840    -3.9296070    -1.5004005
28
188_C13H12N2O_2-3-12-10 (-90,) energy =    -687.3557341
N           1.2978212    -0.8750470     0.2804373
H           1.2951899    -0.0126790     0.8084555
C           2.5388681    -1.4490279     0.0427116
N           3.5871132    -0.5829866     0.3881508
H           3.3780024     0.4044691     0.2905502
O           2.7189353    -2.5777492    -0.3812899
C           7.6001919    -1.5138033    -0.5661094
H           8.6362565    -1.7425897    -0.8001765
C           7.0318565    -1.9764947     0.6224366
H           7.6251120    -2.5639599     1.3178017
C           5.7054343    -1.6742598     0.9300120
H           5.2547050    -2.0138879     1.8571726
C           4.9341224    -0.9289953     0.0353992
C           5.5017369    -0.4660120    -1.1551495
H           4.8961417     0.1116759    -1.8490530
C           6.8340734    -0.7543472    -1.4522061
H           7.2698736    -0.3916683    -2.3791673
C          -2.5906327    -2.3985593    -0.3195882
H          -3.5986628    -2.7742158    -0.4695349
C          -2.3797888    -1.1704866     0.3093484
H          -3.2230548    -0.5782288     0.6547482
C          -1.0865821    -0.6919158     0.5002521
H          -0.9319096     0.2683689     0.9897128
C           0.0220189    -1.4364819     0.0656430
C          -0.1848385    -2.6722313    -0.5669176
H           0.6668771    -3.2517466    -0.8936574
C          -1.4874590    -3.1362069    -0.7509395
H          -1.6350271    -4.0953880    -1.2405689
28
188_C13H12N2O_2-3-12-10 (-75,) energy =    -687.3573910
N           1.2978245    -0.8582029     0.2044755
H           1.2913588     0.0644134     0.6183259
C           2.5382045    -1.4581887     0.0483865
N           3.5871220    -0.5609354     0.3113858
H           3.3727107     0.4109267     0.1174291
O           2.7187304    -2.6278663    -0.2436844
C           7.6157096    -1.4990214    -0.5479468
H           8.6574263    -1.7275625    -0.7550492
C           6.9524707    -2.1363627     0.5034726
H           7.4785251    -2.8603142     1.1197765
C           5.6207352    -1.8352580     0.7831063
H           5.1024440    -2.3120569     1.6082491
C           4.9323138    -0.9162172    -0.0146366
C           5.5941157    -0.2772473    -1.0674006
H           5.0569467     0.4386588    -1.6856013
C           6.9346336    -0.5639969    -1.3281999
H           7.4416856    -0.0614806    -2.1474287
C          -2.5903038    -2.4361897    -0.2362753
H          -3.5982405    -2.8254339    -0.3469114
C          -2.3808365    -1.1396418     0.2362356
H          -3.2249871    -0.5070860     0.4977429
C          -1.0877047    -0.6439301     0.3771320
H          -0.9341247     0.3695016     0.7445491
C           0.0218145    -1.4394808     0.0483459
C          -0.1834797    -2.7437274    -0.4274774
H           0.6688367    -3.3607901    -0.6738443
C          -1.4861065    -3.2242296    -0.5630617
H          -1.6327902    -4.2364854    -0.9308810
28
188_C13H12N2O_2-3-12-10 (-60,) energy =    -687.3592362
N           1.2949011    -0.8512554     0.1208384
H           1.2879743     0.1137434     0.4227463
C           2.5335864    -1.4671012     0.0277690
N           3.5836761    -0.5519096     0.1969220
H           3.3650965     0.4074199    -0.0450581
O           2.7078414    -2.6621059    -0.1428940
C           7.6426251    -1.4721205    -0.5085878
H           8.6923880    -1.6949069    -0.6772425
C           6.8942651    -2.2402337     0.3868862
H           7.3630063    -3.0622319     0.9211269
C           5.5509809    -1.9530831     0.6203215
H           4.9707799    -2.5407092     1.3219101
C           4.9344188    -0.9057205    -0.0747974
C           5.6816080    -0.1346313    -0.9718475
H           5.2030118     0.6809662    -1.5102968
C           7.0321583    -0.4138361    -1.1818712
H           7.6021273     0.1933466    -1.8799227
C          -2.5977807    -2.4571921    -0.1417473
H          -3.6069765    -2.8531419    -0.2081058
C          -2.3837512    -1.1192357     0.1932806
H          -3.2254765    -0.4608360     0.3909014
C          -1.0890277    -0.6150746     0.2778460
H          -0.9318331     0.4303732     0.5386062
C           0.0173501    -1.4433353     0.0291047
C          -0.1923985    -2.7891286    -0.3089936
H           0.6571853    -3.4306135    -0.4947001
C          -1.4966322    -3.2776697    -0.3892360
H          -1.6469606    -4.3220107    -0.6503387
28
188_C13H12N2O_2-3-12-10 (-45,) energy =    -687.3605867
N           1.2898824    -0.8636469     0.0360120
H           1.2880054     0.1271188     0.2374357
C           2.5251881    -1.4931765    -0.0112490
N           3.5782034    -0.5753582     0.0551028
H           3.3563328     0.3767041    -0.2076514
O           2.6861674    -2.7014715    -0.0752695
C           7.6783384    -1.4346266    -0.4513693
H           8.7380815    -1.6399432    -0.5723718
C           6.8700208    -2.3042833     0.2840322
H           7.3019118    -3.1901834     0.7419530
C           5.5108718    -2.0482748     0.4562213
H           4.8878202    -2.7231975     1.0282756
C           4.9398169    -0.9155182    -0.1401912
C           5.7486164    -0.0412776    -0.8779762
H           5.3077662     0.8400338    -1.3403840
C           7.1106284    -0.2977969    -1.0271629
H           7.7240334     0.3909767    -1.6018165
C          -2.6149913    -2.4588424    -0.0490818
H          -3.6273952    -2.8515030    -0.0711672
C          -2.3887601    -1.0986629     0.1674449
H          -3.2239399    -0.4193969     0.3160739
C          -1.0899729    -0.5988198     0.1956608
H          -0.9231556     0.4639030     0.3645837
C           0.0083591    -1.4535525     0.0079215
C          -0.2136769    -2.8218348    -0.2113281
H           0.6290475    -3.4837226    -0.3503803
C          -1.5218959    -3.3056498    -0.2359941
H          -1.6817895    -4.3673600    -0.4051336
28
188_C13H12N2O_2-3-12-10 (-30,) energy =    -687.3613547
N           1.2849425    -0.8836104    -0.0441639
H           1.2900673     0.1210708     0.0678554
C           2.5159296    -1.5255069    -0.0525783
N           3.5722751    -0.6166417    -0.0868925
H           3.3480546     0.3303359    -0.3627581
O           2.6619407    -2.7378287    -0.0157515
C           7.7083041    -1.3948809    -0.3922618
H           8.7764969    -1.5772261    -0.4659645
C           6.8657271    -2.3473554     0.1835419
H           7.2791578    -3.2777716     0.5638644
C           5.4929377    -2.1283447     0.2915745
H           4.8456002    -2.8723200     0.7343239
C           4.9444317    -0.9355334    -0.2028691
C           5.7892141     0.0234595    -0.7813847
H           5.3682052     0.9513944    -1.1650181
C           7.1603850    -0.2044174    -0.8713819
H           7.7977641     0.5511518    -1.3228545
C          -2.6331978    -2.4474732     0.0347560
H          -3.6488367    -2.8318558     0.0533352
C          -2.3939904    -1.0764626     0.1410264
H          -3.2223281    -0.3804603     0.2432887
C          -1.0911407    -0.5872682     0.1174031
H          -0.9148151     0.4840860     0.2004685
C          -0.0010979    -1.4632863    -0.0127067
C          -0.2365850    -2.8425866    -0.1208039
H           0.5994868    -3.5204366    -0.2152002
C          -1.5487368    -3.3157200    -0.0948286
H          -1.7185077    -4.3860746    -0.1781180
28
188_C13H12N2O_2-3-12-10 (-15,) energy =    -687.3617251
N           1.2839795    -0.9135110    -0.1106008
H           1.2902828     0.0971950    -0.1138225
C           2.5123645    -1.5609784    -0.0858387
N           3.5717178    -0.6668156    -0.1928522
H           3.3484540     0.2903654    -0.4293047
O           2.6477832    -2.7707299     0.0278704
C           7.7308775    -1.3665705    -0.3324039
H           8.8044830    -1.5271303    -0.3672011
C           6.8725439    -2.3951542     0.0577430
H           7.2787649    -3.3656491     0.3306921
C           5.4911227    -2.2089376     0.1112018
H           4.8321522    -3.0117492     0.4089125
C           4.9509512    -0.9628471    -0.2423697
C           5.8129005     0.0738751    -0.6349983
H           5.3997947     1.0434125    -0.9091378
C           7.1896445    -0.1273077    -0.6777294
H           7.8378122     0.6891345    -0.9848223
C          -2.6444702    -2.4417494     0.0868971
H          -3.6625233    -2.8169890     0.1355574
C          -2.3977222    -1.0685199     0.0477923
H          -3.2225664    -0.3611768     0.0655566
C          -1.0917043    -0.5914730    -0.0142312
H          -0.9100435     0.4817969    -0.0450195
C          -0.0054043    -1.4816713    -0.0378850
C          -0.2484953    -2.8634290     0.0010248
H           0.5839209    -3.5519605    -0.0129068
C          -1.5639248    -3.3240101     0.0629464
H          -1.7393585    -4.3962527     0.0933326
28
188_C13H12N2O_2-3-12-10 (0,) energy =    -687.3618455
N           1.2804635    -0.9272824    -0.1827240
H           1.2830678     0.0714398    -0.3374010
C           2.5089735    -1.5716809    -0.1159021
N           3.5689503    -0.6898638    -0.2826099
H           3.3484647     0.2856662    -0.4278869
O           2.6416392    -2.7735411     0.0678507
C           7.7364142    -1.3522068    -0.3081494
H           8.8118900    -1.5033671    -0.3177561
C           6.8706034    -2.4294320    -0.1172074
H           7.2727897    -3.4293947     0.0232713
C           5.4861748    -2.2576176    -0.1012693
H           4.8210594    -3.0958306     0.0472968
C           4.9511929    -0.9725968    -0.2812715
C           5.8210480     0.1135664    -0.4735760
H           5.4124961     1.1132517    -0.6136781
C           7.1997333    -0.0761624    -0.4866394
H           7.8533534     0.7789132    -0.6371476
C          -2.6482660    -2.4246038     0.1788535
H          -3.6664541    -2.7916732     0.2691233
C          -2.4017544    -1.0671244    -0.0324399
H          -3.2268872    -0.3640106    -0.1086383
C          -1.0956442    -0.6003996    -0.1473677
H          -0.9141951     0.4607300    -0.3116905
C          -0.0088024    -1.4854179    -0.0532149
C          -0.2516633    -2.8514278     0.1588485
H           0.5808813    -3.5359551     0.2320663
C          -1.5672692    -3.3016840     0.2721236
H          -1.7424453    -4.3617502     0.4363952
28
188_C13H12N2O_2-3-12-10 (15,) energy =    -687.3617253
N           1.2799859    -0.9334945    -0.2394065
H           1.2776514     0.0340283    -0.5317563
C           2.5105139    -1.5708056    -0.1487016
N           3.5663069    -0.6951415    -0.3768056
H           3.3490735     0.2912525    -0.4195207
O           2.6498828    -2.7614427     0.0915438
C           7.7326698    -1.3587759    -0.2816402
H           8.8078473    -1.5114272    -0.2642589
C           6.8622335    -2.4492350    -0.2953262
H           7.2603096    -3.4606150    -0.2895484
C           5.4784347    -2.2750983    -0.3199337
H           4.8104231    -3.1242647    -0.3251002
C           4.9487116    -0.9754835    -0.3232100
C           5.8229060     0.1233928    -0.3100210
H           5.4179003     1.1342202    -0.3142336
C           7.2015605    -0.0681271    -0.2907818
H           7.8592465     0.7969486    -0.2805170
C          -2.6393036    -2.4148120     0.2642214
H          -3.6548924    -2.7782775     0.3910404
C          -2.4030643    -1.0930843    -0.1170384
H          -3.2338176    -0.4143334    -0.2907162
C          -1.1000702    -0.6313998    -0.2787781
H          -0.9269207     0.4018171    -0.5759947
C          -0.0062637    -1.4856119    -0.0619347
C          -0.2387231    -2.8154855     0.3218259
H           0.5990088    -3.4776160     0.4860462
C          -1.5512811    -3.2612529     0.4793104
H          -1.7185214    -4.2934025     0.7761086
28
188_C13H12N2O_2-3-12-10 (30,) energy =    -687.3613545
N           1.2791046    -0.9322514    -0.3074564
H           1.2675982    -0.0071332    -0.7148558
C           2.5145917    -1.5537405    -0.1869990
N           3.5613320    -0.6858227    -0.4949134
H           3.3447775     0.3022772    -0.4965979
O           2.6707921    -2.7229221     0.1307031
C           7.7168743    -1.3752530    -0.2419824
H           8.7895563    -1.5366890    -0.1872861
C           6.8491313    -2.4485484    -0.4506403
H           7.2470405    -3.4538211    -0.5617667
C           5.4698669    -2.2593836    -0.5291368
H           4.8037214    -3.0961458    -0.6861284
C           4.9413526    -0.9685630    -0.3789186
C           5.8116152     0.1117049    -0.1696732
H           5.4060888     1.1155404    -0.0542317
C           7.1881128    -0.0911726    -0.1055379
H           7.8451773     0.7589967     0.0570509
C          -2.6204106    -2.4077714     0.3435008
H          -3.6310216    -2.7701120     0.5078147
C          -2.4022992    -1.1303987    -0.1749889
H          -3.2423761    -0.4857282    -0.4192907
C          -1.1056326    -0.6697967    -0.3844199
H          -0.9461114     0.3287582    -0.7884137
C          -0.0006230    -1.4811799    -0.0790517
C          -0.2148177    -2.7661051     0.4431862
H           0.6321637    -3.3958293     0.6743915
C          -1.5210885    -3.2116546     0.6466529
H          -1.6743766    -4.2090390     1.0505343
28
188_C13H12N2O_2-3-12-10 (45,) energy =    -687.3605854
N           1.2751429    -0.9351136    -0.3889147
H           1.2489133    -0.0547152    -0.8853631
C           2.5168181    -1.5328447    -0.2296425
N           3.5535017    -0.6866052    -0.6367517
H           3.3388447     0.3024683    -0.6534857
O           2.6936133    -2.6668665     0.1858513
C           7.6856315    -1.3995027    -0.1717341
H           8.7529142    -1.5716523    -0.0662220
C           6.8378347    -2.4397262    -0.5589234
H           7.2461679    -3.4266200    -0.7596634
C           5.4679106    -2.2316174    -0.7082052
H           4.8135741    -3.0388386    -1.0102924
C           4.9284385    -0.9661233    -0.4396680
C           5.7765126     0.0793647    -0.0516331
H           5.3600407     1.0635111     0.1554763
C           7.1477869    -0.1362712     0.0757401
H           7.7921131     0.6854247     0.3766994
C          -2.5985059    -2.3953252     0.4250211
H          -3.6030524    -2.7539886     0.6296265
C          -2.4017460    -1.1618942    -0.1979840
H          -3.2521634    -0.5487420    -0.4840901
C          -1.1131650    -0.7049295    -0.4591261
H          -0.9691621     0.2592596    -0.9442087
C           0.0042882    -1.4767685    -0.1017668
C          -0.1882564    -2.7172052     0.5256649
H           0.6694430    -3.3159335     0.7968025
C          -1.4865668    -3.1597973     0.7800240
H          -1.6234454    -4.1227526     1.2652072
28
188_C13H12N2O_2-3-12-10 (60,) energy =    -687.3592363
N           1.2729064    -0.9533367    -0.4707489
H           1.2378571    -0.1234566    -1.0473846
C           2.5207395    -1.5262085    -0.2778715
N           3.5487253    -0.7139269    -0.7801438
H           3.3354330     0.2757768    -0.8205871
O           2.7170194    -2.6174257     0.2303762
C           7.6535203    -1.4218870    -0.0983764
H           8.7141331    -1.5953484     0.0599620
C           6.8559104    -2.4148513    -0.6726374
H           7.2967136    -3.3636052    -0.9665409
C           5.4975060    -2.1969749    -0.8930714
H           4.8780586    -2.9612363    -1.3473349
C           4.9176117    -0.9835755    -0.5035341
C           5.7141650     0.0128062     0.0713146
H           5.2640415     0.9568859     0.3718092
C           7.0782144    -0.2045814     0.2665608
H           7.6866380     0.5775720     0.7125238
C          -2.5801506    -2.3638250     0.5132145
H          -3.5792236    -2.7106811     0.7606013
C          -2.4002576    -1.1867615    -0.2150119
H          -3.2588369    -0.6059227    -0.5413836
C          -1.1183784    -0.7453133    -0.5305030
H          -0.9880118     0.1750612    -1.0975734
C           0.0092677    -1.4764493    -0.1231262
C          -0.1662230    -2.6602069     0.6099409
H           0.6993364    -3.2283042     0.9194572
C          -1.4580043    -3.0877910     0.9176326
H          -1.5816774    -4.0068998     1.4845261
28
188_C13H12N2O_2-3-12-10 (75,) energy =    -687.3573902
N           1.2752805    -0.9804733    -0.5495449
H           1.2340285    -0.2228114    -1.2179419
C           2.5292137    -1.5181010    -0.3020358
N           3.5496255    -0.7501422    -0.8887347
H           3.3388747     0.2375879    -0.9787179
O           2.7400919    -2.5494942     0.3125682
C           7.6351996    -1.4292157    -0.0535515
H           8.6904315    -1.5954840     0.1443375
C           6.9113900    -2.3439744    -0.8222503
H           7.4039511    -3.2235086    -1.2277591
C           5.5613013    -2.1269601    -1.0916748
H           4.9951907    -2.8224693    -1.7020689
C           4.9169380    -1.0054567    -0.5607451
C           5.6392961    -0.0887088     0.2088469
H           5.1361689     0.7839295     0.6194668
C           6.9967513    -0.2978093     0.4555070
H           7.5507815     0.4208017     1.0533411
C          -2.5610970    -2.3156662     0.5927295
H          -3.5557652    -2.6442813     0.8796929
C          -2.3951652    -1.2204607    -0.2564546
H          -3.2606519    -0.6856471    -0.6385676
C          -1.1187184    -0.8024712    -0.6222007
H          -0.9996385     0.0543399    -1.2834936
C           0.0175964    -1.4755767    -0.1448680
C          -0.1438923    -2.5772307     0.7094616
H           0.7285137    -3.1018979     1.0721167
C          -1.4303290    -2.9821169     1.0662430
H          -1.5430228    -3.8377000     1.7270987
28
188_C13H12N2O_2-3-12-10 (90,) energy =    -687.3557341
N           1.2702764    -1.0184830    -0.6176765
H           1.2246181    -0.3524346    -1.3771376
C           2.5298055    -1.5078554    -0.3009814
N           3.5446877    -0.7940073    -0.9555665
H           3.3324017     0.1796503    -1.1432828
O           2.7482824    -2.4606080     0.4275617
C           7.6203580    -1.4379573    -0.0306203
H           8.6716838    -1.5969455     0.1929763
C           6.9807272    -2.2275746    -0.9882756
H           7.5333562    -3.0010102    -1.5145855
C           5.6341632    -2.0175148    -1.2848705
H           5.1276745    -2.6131123    -2.0377747
C           4.9151553    -1.0324584    -0.6041589
C           5.5542004    -0.2419650     0.3553705
H           4.9892119     0.5218067     0.8839623
C           6.9058423    -0.4419362     0.6374475
H           7.3972868     0.1756774     1.3842740
C          -2.5554149    -2.2551950     0.6612577
H          -3.5477429    -2.5590466     0.9817018
C          -2.3982641    -1.2720942    -0.3170059
H          -3.2681041    -0.8010031    -0.7671390
C          -1.1250911    -0.8850131    -0.7257284
H          -1.0121949    -0.1154733    -1.4877684
C           0.0168364    -1.4776316    -0.1626454
C          -0.1360399    -2.4670335     0.8210789
H           0.7409213    -2.9315669     1.2490562
C          -1.4191930    -2.8421268     1.2195517
H          -1.5249665    -3.6106266     1.9809744
28
188_C13H12N2O_2-3-12-10 (105,) energy =    -687.3571719
N           1.2750167    -1.0266423    -0.6497290
H           1.2236228    -0.3567875    -1.4054846
C           2.5300016    -1.2458860    -0.1014517
N           3.5423960    -0.6354224    -0.8609290
H           3.3346964    -0.5438958    -1.8491567
O           2.7457618    -1.8577409     0.9303816
C           7.6006776    -1.5038754    -0.0684465
H           8.6456311    -1.7213982     0.1341966
C           6.9833321    -2.0346693    -1.2019992
H           7.5417658    -2.6720203    -1.8822512
C           5.6381374    -1.7660624    -1.4567010
H           5.1472989    -2.1993923    -2.3251940
C           4.9149135    -0.9345588    -0.5960796
C           5.5307778    -0.4065672     0.5418880
H           4.9542744     0.2250567     1.2093525
C           6.8684552    -0.6971262     0.8055676
H           7.3418020    -0.2853133     1.6927100
C          -2.5447698    -2.2556884     0.6542437
H          -3.5355401    -2.5648548     0.9743689
C          -2.3894259    -1.3983266    -0.4361458
H          -3.2589236    -1.0320708    -0.9755432
C          -1.1181826    -1.0037649    -0.8435775
H          -1.0069343    -0.3362335    -1.6966043
C           0.0232190    -1.4600271    -0.1644927
C          -0.1275999    -2.3226030     0.9322754
H           0.7484658    -2.6691243     1.4617414
C          -1.4089342    -2.7082567     1.3266540
H          -1.5135381    -3.3751592     2.1785763
28
188_C13H12N2O_2-3-12-10 (120,) energy =    -687.3589681
N           1.2723400    -1.0999532    -0.6695480
H           1.2319664    -0.5181302    -1.4955487
C           2.5183848    -1.2663631    -0.0840721
N           3.5427507    -0.7390271    -0.8851445
H           3.3362897    -0.6991284    -1.8763438
O           2.7145025    -1.7751279     1.0066750
C           7.6242786    -1.4623396    -0.0823971
H           8.6764089    -1.6413494     0.1203216
C           7.0664590    -1.8561632    -1.2991979
H           7.6792217    -2.3493686    -2.0489376
C           5.7124557    -1.6373084    -1.5527562
H           5.2727980    -1.9666350    -2.4919947
C           4.9146751    -0.9898890    -0.6027286
C           5.4711578    -0.5955943     0.6191486
H           4.8447285    -0.1097700     1.3580424
C           6.8191999    -0.8400378     0.8745594
H           7.2443413    -0.5337079     1.8264845
C          -2.5703975    -2.1818056     0.6960493
H          -3.5668708    -2.4545287     1.0311970
C          -2.3959553    -1.4399112    -0.4732774
H          -3.2560953    -1.1280867    -1.0597827
C          -1.1174234    -1.0919251    -0.8997370
H          -0.9912961    -0.5143918    -1.8141828
C           0.0121732    -1.4798676    -0.1610705
C          -0.1577512    -2.2265527     1.0149773
H           0.7089824    -2.5211750     1.5892230
C          -1.4462407    -2.5668035     1.4274847
H          -1.5657463    -3.1439668     2.3407345
28
188_C13H12N2O_2-3-12-10 (135,) energy =    -687.3603813
N           1.2743996    -1.1876612    -0.6860598
H           1.2485025    -0.6931370    -1.5675425
C           2.5123486    -1.3158856    -0.0733515
N           3.5495931    -0.8819330    -0.9061984
H           3.3457108    -0.8722160    -1.8977679
O           2.6859138    -1.7274681     1.0623425
C           7.6664590    -1.3767513    -0.1188523
H           8.7286211    -1.4962600     0.0746247
C           7.1445983    -1.6576767    -1.3819036
H           7.7961851    -2.0017617    -2.1806144
C           5.7793206    -1.5144340    -1.6244783
H           5.3732829    -1.7531485    -2.6057223
C           4.9244894    -1.0623832    -0.6108938
C           5.4455613    -0.7764746     0.6579241
H           4.7830717    -0.4415236     1.4454633
C           6.8090190    -0.9429718     0.8945667
H           7.2041412    -0.7225858     1.8826328
C          -2.5972408    -2.0901232     0.7270415
H          -3.6011325    -2.3177631     1.0734614
C          -2.4000714    -1.4545045    -0.4998542
H          -3.2495403    -1.1813552    -1.1201958
C          -1.1122642    -1.1636755    -0.9408344
H          -0.9681583    -0.6683699    -1.8998012
C           0.0040148    -1.5038109    -0.1595612
C          -0.1888942    -2.1440931     1.0742632
H           0.6675387    -2.4019577     1.6806032
C          -1.4864363    -2.4277558     1.5009920
H          -1.6236646    -2.9225381     2.4590006
28
188_C13H12N2O_2-3-12-10 (150,) energy =    -687.3612589
N           1.2751681    -1.2751264    -0.6877862
H           1.2661731    -0.8573186    -1.6083228
C           2.5047113    -1.3742668    -0.0509976
N           3.5569880    -1.0425928    -0.9046955
H           3.3537096    -1.0561822    -1.8956385
O           2.6524790    -1.6934478     1.1186299
C           7.7004866    -1.2969884    -0.1462902
H           8.7699042    -1.3549200     0.0346183
C           7.1915454    -1.4688226    -1.4341297
H           7.8611258    -1.6640086    -2.2675044
C           5.8188177    -1.4019738    -1.6610504
H           5.4282015    -1.5485095    -2.6667013
C           4.9343773    -1.1464776    -0.6027460
C           5.4419770    -0.9683784     0.6925750
H           4.7634686    -0.7841286     1.5138386
C           6.8173318    -1.0511816     0.9064564
H           7.1999529    -0.9155000     1.9146102
C          -2.6282751    -2.0018440     0.7390279
H          -3.6401926    -2.1855877     1.0881304
C          -2.4047404    -1.4690793    -0.5315501
H          -3.2414089    -1.2331089    -1.1837118
C          -1.1067189    -1.2344652    -0.9758999
H          -0.9419784    -0.8195928    -1.9691342
C          -0.0063213    -1.5285715    -0.1543213
C          -0.2257923    -2.0652166     1.1237503
H           0.6177727    -2.2876349     1.7612354
C          -1.5333266    -2.2938480     1.5530158
H          -1.6911003    -2.7086057     2.5452316
28
188_C13H12N2O_2-3-12-10 (165,) energy =    -687.3616976
N           1.3251750    -1.3182095     0.5029560
H           1.4123691    -1.0363478     1.4696850
C           2.4987576    -1.5257900    -0.2100964
N           3.6225628    -1.1670487     0.5264798
H           3.4690616    -0.6570569     1.3857617
O           2.5411928    -1.9792436    -1.3445734
C           7.7036296    -1.2026147    -0.5469923
H           8.7585375    -1.2066336    -0.8054222
C           7.2520820    -0.5002877     0.5713658
H           7.9522654     0.0501686     1.1940541
C           5.8986732    -0.4942166     0.8971646
H           5.5553166     0.0603701     1.7691247
C           4.9715296    -1.1978115     0.1116070
C           5.4212329    -1.9075111    -1.0124169
H           4.7109280    -2.4428631    -1.6258286
C           6.7799363    -1.8981083    -1.3280732
H           7.1160060    -2.4495523    -2.2023252
C          -2.7057708    -1.9478431    -0.5751949
H          -3.7487726    -2.1025898    -0.8356086
C          -2.3513266    -1.5303029     0.7086196
H          -3.1163335    -1.3557848     1.4604974
C          -1.0135558    -1.3335203     1.0384804
H          -0.7477162    -1.0070719     2.0427761
C          -0.0028931    -1.5517843     0.0877454
C          -0.3542948    -1.9713090    -1.2046789
H           0.4197000    -2.1448315    -1.9381798
C          -1.7001112    -2.1636399    -1.5178664
H          -1.9597110    -2.4894708    -2.5217759
28
188_C13H12N2O_2-3-12-10 (180,) energy =    -687.3618455
N           1.3186263    -1.2646487     0.4733958
H           1.3971623    -0.8327234     1.3836997
C           2.4921999    -1.4992916    -0.2312880
N           3.6140741    -1.0797738     0.4718939
H           3.4685616    -0.6655033     1.3821597
O           2.5329156    -2.0144962    -1.3397559
C           7.7121311    -1.2200154    -0.5251034
H           8.7712266    -1.2476088    -0.7641544
C           7.2745887    -0.6859814     0.6879770
H           7.9899402    -0.2923169     1.4051414
C           5.9166671    -0.6522454     0.9910273
H           5.5858400    -0.2335639     1.9403280
C           4.9685052    -1.1535872     0.0838318
C           5.4037426    -1.6916619    -1.1371984
H           4.6781424    -2.0783869    -1.8379037
C           6.7687290    -1.7174193    -1.4246012
H           7.0932674    -2.1366112    -2.3734832
C          -2.7072406    -2.0341569    -0.5300565
H          -3.7491093    -2.2244502    -0.7706442
C          -2.3595495    -1.4333524     0.6808658
H          -3.1284297    -1.1501058     1.3947405
C          -1.0235271    -1.1906352     0.9859823
H          -0.7627440    -0.7209190     1.9332289
C          -0.0076985    -1.5458222     0.0830906
C          -0.3524634    -2.1505854    -1.1356438
H           0.4255322    -2.4254381    -1.8329479
C          -1.6967201    -2.3860432    -1.4253647
H          -1.9510114    -2.8548406    -2.3724635
