28
188_C13H12N2O_23-0-2-3 (-165,) energy =    -687.3614106
N           1.2733781    -0.9900273    -0.4367131
H           1.2817350    -0.0006366    -0.6436054
C           2.5027737    -1.6160875    -0.2664853
N           3.5574283    -0.7139043    -0.3112507
H           3.3284743     0.2694074    -0.3553730
O           2.6379706    -2.8195407    -0.0965047
C           7.7302225    -1.3395037    -0.2526808
H           8.8069449    -1.4812242    -0.2392826
C           6.8697720    -2.4358725    -0.1881807
H           7.2774997    -3.4413376    -0.1234020
C           5.4839178    -2.2760340    -0.2019232
H           4.8230294    -3.1287857    -0.1448140
C           4.9421339    -0.9840592    -0.2856415
C           5.8063538     0.1213076    -0.3507499
H           5.3922178     1.1263330    -0.4162808
C           7.1866445    -0.0564759    -0.3335757
H           7.8360897     0.8133640    -0.3846616
C          -2.6353289    -2.3830286     0.3331818
H          -3.6479025    -2.7243275     0.5276295
C          -2.3879518    -1.0463982     0.0164252
H          -3.2066975    -0.3338127    -0.0373918
C          -1.0887869    -0.6121856    -0.2306663
H          -0.9057367     0.4335268    -0.4732451
C          -0.0109099    -1.5104505    -0.1675902
C          -0.2554345    -2.8570827     0.1428469
H           0.5698653    -3.5533791     0.1828326
C          -1.5630761    -3.2737611     0.3931604
H          -1.7396982    -4.3185976     0.6350700
28
188_C13H12N2O_23-0-2-3 (-150,) energy =    -687.3600371
N           1.2714966    -1.0897516    -0.7069872
H           1.2907443    -0.1038367    -0.9323513
C           2.5023883    -1.6913754    -0.4462642
N           3.5331419    -0.7656895    -0.3735421
H           3.2797379     0.2124272    -0.3627611
O           2.6487877    -2.8952640    -0.2930512
C           7.7127677    -1.3055703    -0.1604754
H           8.7908393    -1.4255411    -0.1060688
C           6.8760285    -2.4216275    -0.1906195
H           7.3035584    -3.4204029    -0.1586878
C           5.4887661    -2.2896980    -0.2570235
H           4.8453921    -3.1576848    -0.2695729
C           4.9222091    -1.0065932    -0.2997151
C           5.7621218     0.1184503    -0.2695538
H           5.3280160     1.1165423    -0.3034423
C           7.1441049    -0.0314662    -0.1990739
H           7.7751748     0.8529550    -0.1763599
C          -2.5835682    -2.3198585     0.4970998
H          -3.5813824    -2.6215142     0.8020338
C          -2.3318400    -1.0046216     0.1038396
H          -3.1321902    -0.2694520     0.1013148
C          -1.0510659    -0.6199742    -0.2838540
H          -0.8631478     0.4100013    -0.5831624
C           0.0011354    -1.5492002    -0.2886790
C          -0.2496398    -2.8759819     0.0923327
H           0.5558079    -3.5967790     0.0728330
C          -1.5362498    -3.2420532     0.4877325
H          -1.7179671    -4.2714498     0.7855346
28
188_C13H12N2O_23-0-2-3 (-135,) energy =    -687.3575646
N           1.2666013    -1.1980562    -0.9706345
H           1.2996029    -0.2138222    -1.2063815
C           2.5038642    -1.7795990    -0.6591260
N           3.4957108    -0.8348944    -0.4529714
H           3.2073909     0.1311482    -0.3859624
O           2.6700510    -2.9857130    -0.5606801
C           7.6736873    -1.2700158    -0.0529614
H           8.7507215    -1.3633592     0.0513625
C           6.8749881    -2.4047344    -0.1988534
H           7.3314007    -3.3910805    -0.2074660
C           5.4894967    -2.3069202    -0.3299975
H           4.8740147    -3.1895094    -0.4299226
C           4.8873880    -1.0397579    -0.3217368
C           5.6883740     0.1039545    -0.1753189
H           5.2254891     1.0895257    -0.1693294
C           7.0688781    -0.0121415    -0.0401036
H           7.6704756     0.8857452     0.0729206
C          -2.4887356    -2.2370176     0.6614716
H          -3.4595839    -2.4918765     1.0763010
C          -2.2425455    -0.9509404     0.1789258
H          -3.0198532    -0.1923372     0.2164700
C          -0.9958113    -0.6243311    -0.3494875
H          -0.8104758     0.3835879    -0.7174581
C           0.0246941    -1.5853157    -0.4076621
C          -0.2232851    -2.8843937     0.0593198
H           0.5565682    -3.6312301    -0.0073495
C          -1.4726783    -3.1919094     0.5973052
H          -1.6520037    -4.1999314     0.9621158
28
188_C13H12N2O_23-0-2-3 (-120,) energy =    -687.3541408
N           1.2417412    -1.3022446    -1.2209924
H           1.2817976    -0.3238890    -1.4836617
C           2.4953102    -1.8646330    -0.8952295
N           3.4353108    -0.9112780    -0.5504497
H           3.1015624     0.0334553    -0.4202749
O           2.6951947    -3.0682142    -0.8835540
C           7.5964050    -1.2378478     0.0664097
H           8.6683530    -1.3039107     0.2281846
C           6.8502668    -2.3839677    -0.2101690
H           7.3425738    -3.3514297    -0.2634099
C           5.4718706    -2.3211842    -0.4163898
H           4.8953611    -3.2129454    -0.6173479
C           4.8251314    -1.0782033    -0.3516342
C           5.5727274     0.0769163    -0.0741453
H           5.0740223     1.0435051    -0.0243614
C           6.9464645    -0.0044888     0.1354319
H           7.5075183     0.9010222     0.3501369
C          -2.3571034    -2.1374467     0.8326828
H          -3.2868005    -2.3433012     1.3550179
C          -2.1318332    -0.8861510     0.2578455
H          -2.8846847    -0.1056963     0.3305406
C          -0.9369082    -0.6211443    -0.4083994
H          -0.7674493     0.3605299    -0.8478558
C           0.0496394    -1.6119541    -0.5145319
C          -0.1797455    -2.8773955     0.0446880
H           0.5716784    -3.6496631    -0.0618173
C          -1.3741543    -3.1227572     0.7207194
H          -1.5387684    -4.1049943     1.1559416
28
188_C13H12N2O_23-0-2-3 (-105,) energy =    -687.3511599
N           1.1977579    -0.7816334    -1.3962125
H           0.8889073    -0.7616222    -2.3660699
C           2.4601035    -1.4993542    -1.3730088
N           3.3876959    -0.8000840    -0.6506249
H           3.0513586     0.0805913    -0.2843519
O           2.6542339    -2.5369438    -1.9790764
C           7.4019827    -1.6669357     0.2968074
H           8.4376686    -1.8751815     0.5491067
C           6.6747329    -2.5567755    -0.4945932
H           7.1454068    -3.4645848    -0.8625414
C           5.3442137    -2.3057753    -0.8307000
H           4.7828704    -2.9933773    -1.4480615
C           4.7283602    -1.1369003    -0.3602350
C           5.4556498    -0.2395330     0.4365641
H           4.9769913     0.6667539     0.8024274
C           6.7831775    -0.5044504     0.7605395
H           7.3324907     0.2008912     1.3781232
C          -1.9915818    -2.1087936     1.0545289
H          -2.8145225    -2.4342919     1.6838866
C          -2.2375366    -1.5692313    -0.2092541
H          -3.2571702    -1.4719939    -0.5728193
C          -1.1830983    -1.1564404    -1.0210967
H          -1.3835760    -0.7387621    -2.0055798
C           0.1414086    -1.2732677    -0.5768348
C           0.3891171    -1.8107197     0.6944031
H           1.4091418    -1.9096632     1.0540761
C          -0.6728358    -2.2272029     1.4958913
H          -0.4620861    -2.6489730     2.4751872
28
188_C13H12N2O_23-0-2-3 (-90,) energy =    -687.3534923
N           1.1781894    -0.9234903    -1.5856206
H           0.8229024    -1.0410168    -2.5315332
C           2.4769784    -1.5432004    -1.5571831
N           3.3311276    -0.8552508    -0.7353258
H           2.9363519    -0.0236570    -0.3162834
O           2.7722869    -2.4902562    -2.2647471
C           7.3137399    -1.6351525     0.4043037
H           8.3399228    -1.8215867     0.7073816
C           6.6879431    -2.4687241    -0.5233751
H           7.2289412    -3.3103987    -0.9476308
C           5.3718294    -2.2435461    -0.9275154
H           4.8907164    -2.8853730    -1.6524522
C           4.6647852    -1.1604275    -0.3851065
C           5.2900888    -0.3199589     0.5487817
H           4.7414124     0.5199855     0.9705747
C           6.6055707    -0.5565796     0.9374979
H           7.0748937     0.1045518     1.6609319
C          -1.8689759    -1.9597637     1.1705640
H          -2.6582843    -2.2121848     1.8723127
C          -2.1801568    -1.4693823    -0.0994070
H          -3.2176266    -1.3367067    -0.3948350
C          -1.1695715    -1.1465549    -1.0013958
H          -1.4201951    -0.7596801    -1.9867696
C           0.1780881    -1.3126896    -0.6482147
C           0.4918109    -1.8041800     0.6269471
H           1.5272035    -1.9503591     0.9178991
C          -0.5292391    -2.1240777     1.5222403
H          -0.2673312    -2.5113811     2.5034280
28
188_C13H12N2O_23-0-2-3 (-75,) energy =    -687.3561585
N           1.1636823    -1.1302079    -1.7123744
H           0.7864812    -1.3562173    -2.6284726
C           2.4967100    -1.6323135    -1.6750578
N           3.2782177    -0.9458202    -0.7778162
H           2.8175652    -0.1812568    -0.3019517
O           2.8894832    -2.4865857    -2.4526935
C           7.2576302    -1.5682679     0.4678868
H           8.2814974    -1.7147069     0.7994353
C           6.7274599    -2.3508650    -0.5585728
H           7.3415684    -3.1123681    -1.0320420
C           5.4162897    -2.1749357    -1.0012631
H           5.0102629    -2.7755940    -1.8032079
C           4.6141119    -1.1958856    -0.3962588
C           5.1434958    -0.4070482     0.6370883
H           4.5222281     0.3527901     1.1075165
C           6.4559787    -0.5921295     1.0623678
H           6.8493584     0.0286596     1.8627939
C          -1.7844460    -1.7876458     1.2577042
H          -2.5511303    -1.9452161     2.0103868
C          -2.1236330    -1.3084783    -0.0098622
H          -3.1601608    -1.0885889    -0.2514833
C          -1.1415022    -1.1016773    -0.9743158
H          -1.4097092    -0.7143083    -1.9545427
C           0.2043879    -1.3839171    -0.6916680
C           0.5454985    -1.8698917     0.5786437
H           1.5755726    -2.1152357     0.8145334
C          -0.4474336    -2.0642569     1.5403629
H          -0.1654062    -2.4479020     2.5173704
28
188_C13H12N2O_23-0-2-3 (-60,) energy =    -687.3586034
N           1.1611052    -1.3553131    -1.7896091
H           0.7765182    -1.6468838    -2.6824212
C           2.5201145    -1.7397712    -1.7488747
N           3.2348369    -1.0702606    -0.7819143
H           2.7164129    -0.3828719    -0.2508622
O           2.9935360    -2.4963883    -2.5830265
C           7.2407552    -1.4764927     0.4701420
H           8.2699365    -1.5683243     0.8048672
C           6.7804724    -2.2214694    -0.6162697
H           7.4549083    -2.8986630    -1.1338227
C           5.4636470    -2.1144857    -1.0640728
H           5.1122983    -2.6850596    -1.9123098
C           4.5828495    -1.2444551    -0.4036871
C           5.0424151    -0.4935304     0.6899658
H           4.3612247     0.1824318     1.2036240
C           6.3613467    -0.6086327     1.1199528
H           6.6987652    -0.0180477     1.9674650
C          -1.7259584    -1.6323782     1.2940487
H          -2.4785225    -1.6947258     2.0744283
C          -2.0574638    -1.1416920     0.0286920
H          -3.0726808    -0.8166113    -0.1826934
C          -1.0914845    -1.0520023    -0.9693866
H          -1.3482744    -0.6490696    -1.9460373
C           0.2261043    -1.4719384    -0.7255145
C           0.5566977    -1.9760223     0.5410647
H           1.5601605    -2.3343938     0.7439012
C          -0.4168791    -2.0448843     1.5393563
H          -0.1444761    -2.4420391     2.5136387
28
188_C13H12N2O_23-0-2-3 (-45,) energy =    -687.3604264
N           1.1454654    -1.5554242    -1.8035330
H           0.7589698    -1.8655353    -2.6876581
C           2.5223666    -1.8282995    -1.7754835
N           3.1886165    -1.2003050    -0.7456525
H           2.6298320    -0.5950332    -0.1586498
O           3.0504240    -2.4813770    -2.6643203
C           7.2272108    -1.3950254     0.4528695
H           8.2635423    -1.4340961     0.7756885
C           6.8108362    -2.0975585    -0.6786032
H           7.5270718    -2.6884964    -1.2435972
C           5.4854330    -2.0573484    -1.1118812
H           5.1679131    -2.5946525    -1.9943585
C           4.5502024    -1.2988536    -0.3912484
C           4.9659819    -0.5905043     0.7477552
H           4.2434055    -0.0000812     1.3083006
C           6.2936834    -0.6382603     1.1631684
H           6.5956176    -0.0818650     2.0465080
C          -1.7009777    -1.4862669     1.3239626
H          -2.4436902    -1.4622951     2.1158595
C          -2.0073023    -0.9953342     0.0523820
H          -2.9920203    -0.5834799    -0.1516307
C          -1.0520103    -1.0134672    -0.9600391
H          -1.2843031    -0.6080207    -1.9415261
C           0.2255696    -1.5464391    -0.7244001
C           0.5271417    -2.0564080     0.5479788
H           1.4944158    -2.5082207     0.7401480
C          -0.4315531    -2.0122736     1.5617484
H          -0.1825479    -2.4131736     2.5406965
28
188_C13H12N2O_23-0-2-3 (-30,) energy =    -687.3615075
N           1.1411023    -1.7363457    -1.7843754
H           0.7571373    -2.0043387    -2.6817968
C           2.5293684    -1.9028126    -1.7772012
N           3.1629618    -1.3416609    -0.6887598
H           2.5790242    -0.8178079    -0.0503560
O           3.0919369    -2.4416973    -2.7208351
C           7.2340824    -1.3126137     0.4135968
H           8.2778692    -1.2962227     0.7135833
C           6.8406279    -1.9803606    -0.7467371
H           7.5824640    -2.4885765    -1.3573798
C           5.5057769    -2.0108690    -1.1508502
H           5.2057490    -2.5210061    -2.0551604
C           4.5372590    -1.3587805    -0.3722407
C           4.9301780    -0.6852763     0.7958168
H           4.1823720    -0.1765103     1.4015829
C           6.2671516    -0.6628152     1.1826091
H           6.5502796    -0.1347929     2.0893178
C          -1.6970359    -1.3747865     1.3245114
H          -2.4377846    -1.2775197     2.1126166
C          -1.9659127    -0.8958568     0.0399287
H          -2.9185417    -0.4203641    -0.1774235
C          -1.0123574    -1.0064242    -0.9684473
H          -1.2126334    -0.6104159    -1.9607203
C           0.2239824    -1.6220046    -0.7143900
C           0.4840588    -2.1246485     0.5708996
H           1.4128460    -2.6478070     0.7727106
C          -0.4695724    -1.9854702     1.5806302
H          -0.2529667    -2.3802101     2.5697023
28
188_C13H12N2O_23-0-2-3 (-15,) energy =    -687.3619930
N           1.1384728    -1.9243092    -1.7574626
H           0.7559671    -2.1228396    -2.6724845
C           2.5332266    -1.9831404    -1.7741744
N           3.1464931    -1.4754682    -0.6482921
H           2.5444468    -1.0299584     0.0313350
O           3.1151074    -2.4210397    -2.7580151
C           7.2302312    -1.2181916     0.3773868
H           8.2767208    -1.1446058     0.6588611
C           6.8590021    -1.8394319    -0.8156043
H           7.6211371    -2.2536444    -1.4706719
C           5.5208306    -1.9422134    -1.1963653
H           5.2374524    -2.4169620    -2.1249367
C           4.5259292    -1.4113981    -0.3609968
C           4.8965894    -0.7852726     0.8403251
H           4.1283570    -0.3707182     1.4907285
C           6.2368862    -0.6899679     1.2037176
H           6.5019328    -0.2002995     2.1370606
C          -1.6758696    -1.2516858     1.3183233
H          -2.4088893    -1.0772596     2.1003522
C          -1.9021920    -0.7837441     0.0216360
H          -2.8134781    -0.2393469    -0.2106634
C          -0.9571916    -0.9932300    -0.9795980
H          -1.1230871    -0.6060529    -1.9816499
C           0.2255544    -1.6982067    -0.7045546
C           0.4387118    -2.1927845     0.5929313
H           1.3197510    -2.7895655     0.8062187
C          -0.5024533    -1.9533071     1.5952962
H          -0.3224140    -2.3417535     2.5940942
28
188_C13H12N2O_23-0-2-3 (0,) energy =    -687.3620917
N           1.2382191    -1.6182865     1.6586945
H           0.9211310    -1.4647681     2.6069775
C           2.6341140    -1.5685181     1.5962220
N           3.1598312    -1.4695773     0.3260672
H           2.5006309    -1.3164244    -0.4254651
O           3.2885172    -1.6075164     2.6298289
C           7.1701505    -1.3173086    -0.9750868
H           8.1963811    -1.2784853    -1.3288511
C           6.8934801    -1.5376762     0.3746603
H           7.7095358    -1.6718531     1.0800739
C           5.5826402    -1.5897293     0.8492852
H           5.3724587    -1.7536219     1.8965815
C           4.5187850    -1.4171635    -0.0494365
C           4.7943112    -1.1949391    -1.4085184
H           3.9722274    -1.0591012    -2.1090783
C           6.1084349    -1.1455662    -1.8649066
H           6.2992766    -0.9713813    -2.9205599
C          -1.7396552    -1.5249340    -1.3349488
H          -2.5122986    -1.5003840    -2.0976930
C          -1.8429733    -0.7180576    -0.1993186
H          -2.6975348    -0.0584767    -0.0751917
C          -0.8463507    -0.7370687     0.7737128
H          -0.9169678    -0.0896901     1.6441104
C           0.2642933    -1.5844246     0.6361520
C           0.3504656    -2.4184184    -0.4909537
H           1.1699311    -3.1256392    -0.5754954
C          -0.6390742    -2.3709237    -1.4739684
H          -0.5570967    -3.0208350    -2.3409730
28
188_C13H12N2O_23-0-2-3 (15,) energy =    -687.3619937
N           1.2384348    -1.4295166     1.6430360
H           0.9163941    -1.3525688     2.5987322
C           2.6322081    -1.4920546     1.5892434
N           3.1699569    -1.3298563     0.3299562
H           2.5228085    -1.0908204    -0.4095568
O           3.2778994    -1.6368070     2.6189584
C           7.1795509    -1.4179705    -0.9776882
H           8.2058312    -1.4387406    -1.3327889
C           6.8864356    -1.6890130     0.3593472
H           7.6896189    -1.9229169     1.0534034
C           5.5754342    -1.6654851     0.8356577
H           5.3530538    -1.8673653     1.8738072
C           4.5282204    -1.3641832    -0.0486599
C           4.8202511    -1.0901117    -1.3948089
H           4.0114205    -0.8536562    -2.0839683
C           6.1344758    -1.1168839    -1.8527253
H           6.3385102    -0.9006714    -2.8980818
C          -1.7704492    -1.6358932    -1.3129639
H          -2.5529842    -1.6848338    -2.0643153
C          -1.9223867    -0.8222903    -0.1875566
H          -2.8250821    -0.2310721    -0.0595422
C          -0.9143459    -0.7463356     0.7702197
H          -1.0235685    -0.0930578     1.6321209
C           0.2591744    -1.5044451     0.6292769
C           0.3980387    -2.3439465    -0.4886027
H           1.2720430    -2.9806354    -0.5811508
C          -0.6067780    -2.3916932    -1.4560560
H          -0.4835762    -3.0456006    -2.3152102
28
188_C13H12N2O_23-0-2-3 (30,) energy =    -687.3615075
N           1.2489135    -1.2552851     1.6156031
H           0.9253368    -1.2598803     2.5747129
C           2.6354686    -1.4288014     1.5665869
N           3.1931861    -1.1978426     0.3269717
H           2.5648314    -0.8673498    -0.3933821
O           3.2620291    -1.6886654     2.5850258
C           7.1855963    -1.5106632    -0.9969859
H           8.2080139    -1.5871031    -1.3555541
C           6.8731238    -1.8260037     0.3258855
H           7.6571365    -2.1505171     1.0052264
C           5.5669940    -1.7317229     0.8067200
H           5.3299664    -1.9676723     1.8344260
C           4.5447052    -1.3138388    -0.0591775
C           4.8560972    -0.9951124    -1.3910184
H           4.0664313    -0.6686642    -2.0654581
C           6.1655233    -1.0923223    -1.8531492
H           6.3853602    -0.8397200    -2.8870513
C          -1.7843184    -1.7488977    -1.2838425
H          -2.5745338    -1.8684611    -2.0190592
C          -1.9756908    -0.9293485    -0.1687026
H          -2.9171524    -0.4041999    -0.0319308
C          -0.9589894    -0.7630796     0.7677741
H          -1.0996650    -0.1050517     1.6214418
C           0.2646225    -1.4353695     0.6167074
C           0.4473973    -2.2778192    -0.4919549
H           1.3665152    -2.8442287    -0.5990573
C          -0.5697428    -2.4169832    -1.4376815
H          -0.4125803    -3.0730392    -2.2896744
28
188_C13H12N2O_23-0-2-3 (45,) energy =    -687.3604264
N           1.2527053    -1.0765883     1.5835921
H           0.9261242    -1.1255259     2.5418047
C           2.6276486    -1.3578941     1.5448409
N           3.2210492    -1.0462453     0.3408596
H           2.6202234    -0.6234955    -0.3544516
O           3.2174011    -1.7426272     2.5446203
C           7.1768660    -1.6007487    -1.0113969
H           8.1908859    -1.7368096    -1.3760508
C           6.8402541    -1.9569011     0.2951245
H           7.5967521    -2.3730627     0.9553814
C           5.5447869    -1.7865685     0.7837877
H           5.2893286    -2.0542131     1.7993603
C           4.5582007    -1.2510172    -0.0583017
C           4.8936820    -0.8913763    -1.3736247
H           4.1311504    -0.4744298    -2.0290851
C           6.1926599    -1.0639761    -1.8432043
H           6.4322992    -0.7781258    -2.8639356
C          -1.7869297    -1.8555034    -1.2523089
H          -2.5785483    -2.0463618    -1.9707874
C          -2.0166922    -1.0279281    -0.1504491
H          -2.9904174    -0.5673542    -0.0067656
C          -0.9989869    -0.7719612     0.7642479
H          -1.1724539    -0.1077482     1.6070958
C           0.2661494    -1.3601394     0.6052681
C           0.4913013    -2.2061851    -0.4917627
H           1.4487412    -2.7017300    -0.6118791
C          -0.5301366    -2.4375160    -1.4147620
H          -0.3398686    -3.0967925    -2.2575052
28
188_C13H12N2O_23-0-2-3 (60,) energy =    -687.3586034
N           1.2655629    -0.8881205     1.5134602
H           0.9412840    -0.9167559     2.4747397
C           2.6229000    -1.2801152     1.4947549
N           3.2682869    -0.9118740     0.3363248
H           2.7105786    -0.3949227    -0.3307624
O           3.1556187    -1.7788953     2.4744670
C           7.1903731    -1.6837865    -1.0058517
H           8.1970667    -1.8736918    -1.3666734
C           6.8072134    -2.0934355     0.2718485
H           7.5196609    -2.6056579     0.9132242
C           5.5205025    -1.8551240     0.7551548
H           5.2292434    -2.1643876     1.7491517
C           4.5911895    -1.1956579    -0.0635932
C           4.9731164    -0.7823021    -1.3498419
H           4.2541918    -0.2701212    -1.9867157
C           6.2631388    -1.0234757    -1.8139483
H           6.5403474    -0.6946707    -2.8119272
C          -1.8086520    -1.9874355    -1.1812588
H          -2.6086170    -2.2579844    -1.8639671
C          -2.0638851    -1.1615424    -0.0837368
H          -3.0667314    -0.7820275     0.0931650
C          -1.0373987    -0.8059799     0.7864480
H          -1.2355137    -0.1452731     1.6268998
C           0.2660522    -1.2881675     0.5855206
C           0.5204231    -2.1272623    -0.5093915
H           1.5124020    -2.5362866    -0.6680934
C          -0.5138594    -2.4628169    -1.3850861
H          -0.3000335    -3.1174507    -2.2258566
28
188_C13H12N2O_23-0-2-3 (75,) energy =    -687.3561585
N           1.2611091    -0.6931504     1.3761794
H           0.9451785    -0.6518571     2.3411014
C           2.5938747    -1.1971063     1.3952092
N           3.3100856    -0.7942054     0.2944204
H           2.8129428    -0.1882486    -0.3450082
O           3.0434474    -1.8044492     2.3532121
C           7.2086338    -1.7713364    -0.9788448
H           8.2108736    -2.0126742    -1.3208145
C           6.7519429    -2.2334405     0.2560857
H           7.4020317    -2.8384731     0.8825906
C           5.4697264    -1.9305269     0.7146228
H           5.1209506    -2.2812622     1.6759248
C           4.6215689    -1.1514953    -0.0864929
C           5.0769697    -0.6853006    -1.3297133
H           4.4199690    -0.0809532    -1.9524046
C           6.3616767    -0.9921995    -1.7691042
H           6.6977116    -0.6215854    -2.7337466
C          -1.8636707    -2.1261592    -1.0991402
H          -2.6751781    -2.4804510    -1.7277069
C          -2.1261089    -1.3107600     0.0043225
H          -3.1472602    -1.0238927     0.2411357
C          -1.0866083    -0.8520811     0.8084091
H          -1.2956220    -0.2053401     1.6574531
C           0.2412879    -1.2127602     0.5298202
C           0.5055263    -2.0354752    -0.5745138
H           1.5208414    -2.3451739    -0.7983627
C          -0.5447158    -2.4813821    -1.3787274
H          -0.3217322    -3.1237909    -2.2265820
28
188_C13H12N2O_23-0-2-3 (90,) energy =    -687.3534923
N           1.2654727    -0.5301775     1.1968178
H           0.9721057    -0.3770912     2.1587396
C           2.5657653    -1.1442221     1.2591514
N           3.3593271    -0.7191047     0.2257921
H           2.9307202    -0.0335398    -0.3819001
O           2.9145417    -1.8596374     2.1818139
C           7.2688860    -1.8185336    -0.9032923
H           8.2755055    -2.0904935    -1.2072994
C           6.7113513    -2.3559856     0.2574625
H           7.2863118    -3.0509979     0.8636525
C           5.4214431    -2.0162739     0.6660241
H           4.9935705    -2.4271450     1.5699352
C           4.6709400    -1.1208116    -0.1099645
C           5.2275220    -0.5784583    -1.2785567
H           4.6450682     0.1156402    -1.8814140
C           6.5178906    -0.9248652    -1.6691135
H           6.9339111    -0.4949378    -2.5761994
C          -1.9403588    -2.2663717    -0.9627957
H          -2.7701465    -2.6973374    -1.5149702
C          -2.1750158    -1.4396339     0.1379198
H          -3.1928723    -1.2213666     0.4502527
C          -1.1123758    -0.8872190     0.8483559
H          -1.3036663    -0.2395392     1.7012128
C           0.2116863    -1.1562806     0.4702186
C           0.4485615    -1.9855471    -0.6353262
H           1.4647604    -2.2155204    -0.9394828
C          -0.6241243    -2.5331991    -1.3394927
H          -0.4213023    -3.1802201    -2.1889374
28
188_C13H12N2O_23-0-2-3 (105,) energy =    -687.3511599
N           1.2716059    -0.4467579     0.9745767
H           1.0247768    -0.1552689     1.9182513
C           2.5368108    -1.1531862     1.0714968
N           3.4098641    -0.6901588     0.1256486
H           3.0424546     0.0567316    -0.4488362
O           2.7790502    -1.9829278     1.9284949
C           7.3640923    -1.8198939    -0.7970306
H           8.3836352    -2.0987571    -1.0468993
C           6.6971910    -2.4484610     0.2551900
H           7.1990301    -3.2220757     0.8302686
C           5.3883310    -2.1027556     0.5922716
H           4.8739882    -2.5868502     1.4108934
C           4.7325802    -1.1056674    -0.1444018
C           5.3991056    -0.4713714    -1.2038919
H           4.8894462     0.3014278    -1.7760409
C           6.7058849    -0.8270464    -1.5252862
H           7.2080358    -0.3258728    -2.3482873
C          -2.0539202    -2.3762279    -0.8023284
H          -2.9119742    -2.8569731    -1.2626533
C          -2.2243437    -1.5044990     0.2746177
H          -3.2197293    -1.3014582     0.6609715
C          -1.1245280    -0.8911072     0.8708396
H          -1.2661225    -0.2144935     1.7110767
C           0.1701670    -1.1379599     0.3931743
C           0.3418468    -2.0097495    -0.6916153
H           1.3378863    -2.2133500    -1.0737891
C          -0.7647747    -2.6237458    -1.2764078
H          -0.6125595    -3.3029336    -2.1111894
28
188_C13H12N2O_23-0-2-3 (120,) energy =    -687.3541409
N           1.3102250    -0.9942987     0.9418910
H           1.3579882     0.0181217     0.9194794
C           2.5458445    -1.6361709     0.7071933
N           3.4538772    -0.8244597     0.0530047
H           3.1042149     0.0498778    -0.3132261
O           2.7552897    -2.7973706     1.0177491
C           7.5708621    -1.3463981    -0.7085242
H           8.6311057    -1.4642916    -0.9124676
C           6.8537812    -2.3639388    -0.0782742
H           7.3570697    -3.2828687     0.2106066
C           5.4905204    -2.2341331     0.1884012
H           4.9357205    -3.0298440     0.6648736
C           4.8299311    -1.0523655    -0.1783615
C           5.5483315    -0.0264462    -0.8120751
H           5.0388824     0.8926616    -1.0969994
C           6.9068986    -0.1750296    -1.0765032
H           7.4452886     0.6302073    -1.5690068
C          -2.4026522    -2.3353014    -0.5692897
H          -3.3613422    -2.6700067    -0.9545605
C          -2.1530829    -0.9756111    -0.3798815
H          -2.9160199    -0.2394977    -0.6191399
C          -0.9211999    -0.5464797     0.1102933
H          -0.7334658     0.5171162     0.2482768
C           0.0789800    -1.4774019     0.4253913
C          -0.1736166    -2.8462994     0.2551262
H           0.5899714    -3.5651073     0.5246197
C          -1.4057702    -3.2593038    -0.2499155
H          -1.5884582    -4.3222949    -0.3840081
28
188_C13H12N2O_23-0-2-3 (135,) energy =    -687.3575641
N           1.3182589    -0.9651526     0.6704898
H           1.3562852     0.0455260     0.6208691
C           2.5392322    -1.6207001     0.4560804
N           3.5076019    -0.7793698    -0.0665262
H           3.2061817     0.1317183    -0.3825876
O           2.7102771    -2.8079712     0.6864257
C           7.6564681    -1.3439067    -0.5887304
H           8.7257602    -1.4717979    -0.7296282
C           6.8792239    -2.3857318    -0.0814869
H           7.3445342    -3.3340085     0.1744864
C           5.5037206    -2.2435278     0.1031325
H           4.9040782    -3.0577839     0.4841739
C           4.8902948    -1.0244012    -0.2220437
C           5.6697077     0.0258528    -0.7325172
H           5.1981068     0.9741523    -0.9854418
C           7.0401810    -0.1349529    -0.9155706
H           7.6250720     0.6902923    -1.3127747
C          -2.5235220    -2.3808490    -0.3688878
H          -3.5165562    -2.7313633    -0.6346385
C          -2.2581434    -1.0139104    -0.2765431
H          -3.0428289    -0.2879478    -0.4723419
C          -0.9831354    -0.5658369     0.0608511
H          -0.7834562     0.5027087     0.1240367
C           0.0471289    -1.4830667     0.3166851
C          -0.2186166    -2.8582686     0.2430732
H           0.5699928    -3.5652492     0.4635294
C          -1.4971662    -3.2903379    -0.1085109
H          -1.6907430    -4.3581474    -0.1688887
28
188_C13H12N2O_23-0-2-3 (150,) energy =    -687.3600349
N           1.3066510    -0.9370246     0.3890559
H           1.3310893     0.0724915     0.3294188
C           2.5241357    -1.5971316     0.2274034
N           3.5402455    -0.7365202    -0.1629003
H           3.2766570     0.2012672    -0.4313997
O           2.6725458    -2.7976065     0.4040574
C           7.7038428    -1.3472964    -0.4786867
H           8.7776149    -1.4857696    -0.5648714
C           6.8818893    -2.4041805    -0.0862742
H           7.3167877    -3.3754493     0.1347751
C           5.5001960    -2.2483693     0.0274866
H           4.8678847    -3.0737657     0.3213810
C           4.9241526    -1.0000297    -0.2538300
C           5.7493114     0.0653831    -0.6489401
H           5.3079491     1.0365771    -0.8674993
C           7.1256901    -0.1087380    -0.7612675
H           7.7450419     0.7294502    -1.0691913
C          -2.6071450    -2.4130058    -0.1821825
H          -3.6202166    -2.7763219    -0.3281650
C          -2.3402865    -1.0430629    -0.1867576
H          -3.1438155    -0.3273436    -0.3388324
C          -1.0402879    -0.5798991    -0.0022048
H          -0.8409785     0.4905736    -0.0136252
C           0.0164089    -1.4826956     0.1950485
C          -0.2485643    -2.8603018     0.2146059
H           0.5617878    -3.5557215     0.3828154
C          -1.5550399    -3.3077309     0.0177321
H          -1.7481238    -4.3772755     0.0299196
28
188_C13H12N2O_23-0-2-3 (165,) energy =    -687.3614104
N           1.2956703    -0.9191921     0.1107363
H           1.3040085     0.0877400     0.0219004
C           2.5185583    -1.5775658     0.0441716
N           3.5663158    -0.7061556    -0.2214063
H           3.3351529     0.2574804    -0.4195055
O           2.6534408    -2.7829154     0.2003147
C           7.7310878    -1.3658588    -0.3883582
H           8.8056905    -1.5162549    -0.4353853
C           6.8776875    -2.4309225    -0.0987958
H           7.2888536    -3.4208158     0.0813357
C           5.4945456    -2.2597243    -0.0354604
H           4.8388317    -3.0899737     0.1834287
C           4.9483778    -0.9874906    -0.2653616
C           5.8055218     0.0863025    -0.5571219
H           5.3878596     1.0759060    -0.7363143
C           7.1830511    -0.1029192    -0.6181004
H           7.8269256     0.7424515    -0.8456342
C          -2.6374493    -2.4433477    -0.0150754
H          -3.6566097    -2.8172544    -0.0481619
C          -2.3835027    -1.0743680    -0.1128369
H          -3.2033264    -0.3697238    -0.2241469
C          -1.0762268    -0.5981333    -0.0720060
H          -0.8878362     0.4713739    -0.1529242
C           0.0030630    -1.4854044     0.0705223
C          -0.2476528    -2.8621022     0.1773197
H           0.5797704    -3.5467292     0.2962350
C          -1.5636169    -3.3226118     0.1285142
H          -1.7452677    -4.3912052     0.2093503
28
188_C13H12N2O_23-0-2-3 (180,) energy =    -687.3618457
N           1.2799192    -0.9311612    -0.1711148
H           1.2838187     0.0704291    -0.3059774
C           2.5075738    -1.5784393    -0.1179866
N           3.5684413    -0.6955313    -0.2726712
H           3.3482473     0.2810668    -0.4110735
O           2.6389581    -2.7832722     0.0462597
C           7.7350216    -1.3625158    -0.3114227
H           8.8102840    -1.5149660    -0.3239914
C           6.8685163    -2.4389428    -0.1190503
H           7.2698338    -3.4394999     0.0196838
C           5.4843587    -2.2655043    -0.0993014
H           4.8187419    -3.1032533     0.0496772
C           4.9503797    -0.9797624    -0.2771905
C           5.8209035     0.1055722    -0.4711198
H           5.4132394     1.1058235    -0.6098067
C           7.1993386    -0.0857308    -0.4876358
H           7.8535446     0.7687009    -0.6392449
C          -2.6509148    -2.4312908     0.1552134
H          -3.6695663    -2.7991108     0.2367924
C          -2.4029185    -1.0708461    -0.0341169
H          -3.2274146    -0.3661073    -0.1017098
C          -1.0961943    -0.6032761    -0.1381356
H          -0.9136772     0.4601395    -0.2856320
C          -0.0101313    -1.4903246    -0.0545699
C          -0.2544968    -2.8592708     0.1357038
H           0.5774577    -3.5453163     0.2009351
C          -1.5707125    -3.3103960     0.2379449
H          -1.7470009    -4.3727711     0.3852298
