29
049_C14H13NO_0-2-9-10 (-165,) energy =    -671.3173345
N           1.2690318    -1.0252569     0.1323692
H           1.1201746    -0.1626126     0.6387352
C           2.4797877    -1.1355319    -0.5276139
C           5.7115802     1.4025476     0.7621460
H           6.5383791     2.0376580     1.0686468
C           4.6108881     1.2343213     1.6039484
H           4.5828611     1.7280213     2.5714607
C           3.5483143     0.4200171     1.2116687
H           2.7208747     0.2672818     1.8994113
C           3.5743558    -0.2306161    -0.0308091
C           4.6945028    -0.0738411    -0.8589563
H           4.7097374    -0.6033208    -1.8057098
C           5.7526502     0.7428336    -0.4689344
H           6.6120987     0.8631246    -1.1228043
O           2.6656349    -1.9245979    -1.4456539
C          -2.3297734    -2.9799357    -0.8758186
H          -3.2608508    -3.4810811    -1.1258040
C          -1.2038216    -3.7297654    -0.5393649
H          -1.2696420    -4.8150537    -0.5204225
C           0.0166211    -3.1314104    -0.1984235
C           1.1912971    -3.9799486     0.2140442
H           0.8690893    -4.9999761     0.4450322
H           1.6847963    -3.5665076     1.1016070
H           1.9451027    -4.0171470    -0.5789870
C           0.0811753    -1.7242357    -0.2329326
C          -1.0497282    -0.9670259    -0.5618277
H          -0.9715656     0.1177682    -0.5823188
C          -2.2556872    -1.5872235    -0.8772198
H          -3.1241890    -0.9861818    -1.1316506
29
049_C14H13NO_0-2-9-10 (-150,) energy =    -671.3172464
N           1.2966735    -1.0396153     0.1005895
H           1.1662825    -0.1493660     0.5631354
C           2.5296146    -1.2275391    -0.4987162
C           5.6645500     1.4456916     0.7419505
H           6.4619283     2.1223124     1.0372843
C           4.6690927     1.0983269     1.6567868
H           4.6952926     1.4942731     2.6683261
C           3.6419638     0.2336521     1.2768812
H           2.8870683    -0.0550304     2.0036192
C           3.6090225    -0.2976270    -0.0203170
C           4.6207459     0.0430425    -0.9281268
H           4.5916644    -0.3909071    -1.9223516
C           5.6388655     0.9153126    -0.5508710
H           6.4149370     1.1809081    -1.2634748
O           2.7333109    -2.0683972    -1.3646811
C          -2.3246686    -2.9486333    -0.9124343
H          -3.2617925    -3.4367406    -1.1654286
C          -1.2308605    -3.7097852    -0.5036286
H          -1.3283165    -4.7904274    -0.4315517
C          -0.0045146    -3.1276938    -0.1554902
C           1.1318352    -3.9857610     0.3370044
H           0.7716616    -4.9808727     0.6157187
H           1.6139655    -3.5376575     1.2139355
H           1.9054856    -4.0904999    -0.4304144
C           0.1011069    -1.7263954    -0.2600989
C          -0.9979020    -0.9571996    -0.6618038
H          -0.8882548     0.1225261    -0.7347357
C          -2.2110645    -1.5602572    -0.9821131
H          -3.0543268    -0.9500435    -1.2931720
29
049_C14H13NO_0-2-9-10 (-135,) energy =    -671.3157959
N           1.3335653    -1.0457412     0.0633797
H           1.2214715    -0.1428684     0.5059877
C           2.5831363    -1.3019728    -0.4692109
C           5.6312135     1.4848862     0.7344750
H           6.4014880     2.1949664     1.0232040
C           4.7631387     0.9664887     1.6968124
H           4.8608104     1.2650846     2.7370615
C           3.7682918     0.0608859     1.3248043
H           3.0988291    -0.3496365     2.0764662
C           3.6521106    -0.3490059    -0.0102761
C           4.5294990     0.1707241    -0.9708748
H           4.4349361    -0.1614470    -2.0001013
C           5.5112962     1.0870324    -0.6000181
H           6.1848029     1.4911299    -1.3508964
O           2.8035173    -2.1910448    -1.2804485
C          -2.3086685    -2.9117532    -0.9544596
H          -3.2512992    -3.3878861    -1.2099646
C          -1.2498928    -3.6785594    -0.4709380
H          -1.3800083    -4.7506482    -0.3436594
C          -0.0182010    -3.1113819    -0.1165797
C           1.0772949    -3.9719176     0.4577009
H           0.6833617    -4.9465255     0.7618007
H           1.5328488    -3.4980674     1.3355350
H           1.8793790    -4.1245441    -0.2713885
C           0.1301292    -1.7212304    -0.2935041
C          -0.9338078    -0.9459060    -0.7708513
H          -0.7906948     0.1246959    -0.8985252
C          -2.1536327    -1.5328222    -1.0957237
H          -2.9695361    -0.9183625    -1.4658642
29
049_C14H13NO_0-2-9-10 (-120,) energy =    -671.3133998
N           1.3558560    -1.0598707     0.0326312
H           1.2540136    -0.1367729     0.4343942
C           2.6179010    -1.3737668    -0.4326332
C           5.5984826     1.5083048     0.7244854
H           6.3477970     2.2432027     1.0061184
C           4.8827815     0.8271596     1.7103810
H           5.0760849     1.0265278     2.7609956
C           3.9132349    -0.1098688     1.3484584
H           3.3515156    -0.6370618     2.1153331
C           3.6772370    -0.3919795    -0.0030704
C           4.3948874     0.2969423    -0.9890035
H           4.2068983     0.0730487    -2.0350134
C           5.3503747     1.2443661    -0.6251624
H           5.9021803     1.7776870    -1.3944784
O           2.8552120    -2.3197954    -1.1698274
C          -2.2953361    -2.8975843    -1.0073827
H          -3.2401592    -3.3653614    -1.2701384
C          -1.2730542    -3.6602823    -0.4454606
H          -1.4338363    -4.7204494    -0.2646122
C          -0.0405259    -3.1024358    -0.0786943
C           1.0118949    -3.9549346     0.5817117
H           0.5818381    -4.8998062     0.9277997
H           1.4501934    -3.4419160     1.4462277
H           1.8336468    -4.1697301    -0.1087049
C           0.1482905    -1.7281714    -0.3260656
C          -0.8792540    -0.9563990    -0.8822890
H          -0.7048498     0.1019297    -1.0624092
C          -2.1013884    -1.5323721    -1.2176992
H          -2.8888094    -0.9207796    -1.6491435
29
049_C14H13NO_0-2-9-10 (-105,) energy =    -671.3110343
N           1.3563599    -1.0480245    -0.0126902
H           1.2544358    -0.1068116     0.3448772
C           2.6294355    -1.4031418    -0.4080998
C           5.6114045     1.4937340     0.7279261
H           6.3634030     2.2261571     1.0087493
C           5.0638639     0.6481391     1.6941021
H           5.3889392     0.7191698     2.7286212
C           4.0928398    -0.2883842     1.3350408
H           3.6615169    -0.9420565     2.0887022
C           3.6821803    -0.3995465     0.0012379
C           4.2287560     0.4549680    -0.9639763
H           3.9087532     0.3682370    -1.9987476
C           5.1904978     1.3974356    -0.6005244
H           5.6115213     2.0569785    -1.3545749
O           2.8876506    -2.4064260    -1.0557008
C          -2.2807742    -2.9047776    -1.0702990
H          -3.2216989    -3.3772829    -1.3385394
C          -1.2949275    -3.6396072    -0.4140945
H          -1.4804529    -4.6820047    -0.1661873
C          -0.0692310    -3.0737701    -0.0366598
C           0.9420380    -3.8908443     0.7251232
H           0.4847526    -4.8053000     1.1151693
H           1.3494542    -3.3247232     1.5714646
H           1.7894634    -4.1606811     0.0871039
C           0.1517583    -1.7234599    -0.3723110
C          -0.8393172    -0.9790767    -1.0235570
H          -0.6402863     0.0613512    -1.2699645
C          -2.0563473    -1.5606611    -1.3679721
H          -2.8156168    -0.9707481    -1.8736651
29
049_C14H13NO_0-2-9-10 (-90,) energy =    -671.3100529
N           1.3344879    -1.0173089    -0.0446547
H           1.2238791    -0.0568020     0.2548897
C           2.6203919    -1.3992250    -0.3626813
C           5.6550952     1.4584709     0.7398601
H           6.4284691     2.1713638     1.0127088
C           5.2838709     0.4527507     1.6346489
H           5.7676277     0.3805932     2.6050610
C           4.2917445    -0.4640897     1.2856394
H           4.0076010    -1.2505665     1.9796695
C           3.6640147    -0.3793515     0.0373377
C           4.0397484     0.6288731    -0.8581838
H           3.5621932     0.6897292    -1.8328324
C           5.0330164     1.5442625    -0.5070114
H           5.3219615     2.3224678    -1.2083098
O           2.9061197    -2.4574725    -0.9013489
C          -2.2670570    -2.9213007    -1.1419444
H          -3.1988696    -3.4060193    -1.4200787
C          -1.3242848    -3.6104499    -0.3810248
H          -1.5341400    -4.6287659    -0.0625417
C          -0.1126728    -3.0259686     0.0128831
C           0.8510258    -3.7877698     0.8855773
H           0.3682917    -4.6706772     1.3155842
H           1.2155250    -3.1619433     1.7091390
H           1.7294308    -4.1047218     0.3146288
C           0.1405959    -1.7081251    -0.4152685
C          -0.8070704    -1.0093318    -1.1725214
H          -0.5835392     0.0070559    -1.4883687
C          -2.0121164    -1.6066906    -1.5323050
H          -2.7380302    -1.0526449    -2.1207613
29
049_C14H13NO_0-2-9-10 (-75,) energy =    -671.3110225
N           1.3217052    -0.9997937    -0.0638749
H           1.1986105    -0.0245672     0.1781365
C           2.6198729    -1.3977611    -0.3041339
C           5.6868855     1.4495144     0.7199617
H           6.4753564     2.1541765     0.9700361
C           5.4959493     0.3070334     1.5013910
H           6.1363261     0.1211264     2.3594200
C           4.4911502    -0.6034078     1.1773880
H           4.3551870    -1.5047494     1.7683454
C           3.6510111    -0.3632467     0.0832206
C           3.8547524     0.7746637    -0.7063926
H           3.2248426     0.9492985    -1.5754373
C           4.8698245     1.6788715    -0.3876964
H           5.0248998     2.5575415    -1.0080003
O           2.9286784    -2.4978832    -0.7365562
C          -2.2253296    -2.9679940    -1.2248922
H          -3.1432058    -3.4694370    -1.5192826
C          -1.3320289    -3.6018521    -0.3628038
H          -1.5667211    -4.5933680     0.0169965
C          -0.1407592    -2.9928614     0.0550231
C           0.7692513    -3.6899846     1.0330882
H           0.2591521    -4.5385042     1.4992659
H           1.0920498    -3.0056831     1.8268131
H           1.6753705    -4.0490275     0.5349360
C           0.1449328    -1.7109038    -0.4534853
C          -0.7530666    -1.0673390    -1.3129913
H          -0.5053487    -0.0775841    -1.6894912
C          -1.9398067    -1.6866606    -1.6962121
H          -2.6273665    -1.1760617    -2.3646187
29
049_C14H13NO_0-2-9-10 (-60,) energy =    -671.3131053
N           1.3185330    -0.9968996    -0.0826906
H           1.1941264    -0.0111276     0.1099933
C           2.6214960    -1.4210245    -0.2413318
C           5.6962645     1.4410651     0.7022669
H           6.4878740     2.1490074     0.9324073
C           5.6558351     0.2022965     1.3484123
H           6.4164859    -0.0546288     2.0806620
C           4.6491835    -0.7122380     1.0458524
H           4.6282078    -1.6895118     1.5186621
C           3.6509481    -0.3805393     0.1209691
C           3.7074546     0.8531092    -0.5397382
H           2.9624414     1.0993722    -1.2929598
C           4.7269376     1.7615774    -0.2487456
H           4.7676902     2.7138325    -0.7706199
O           2.9334893    -2.5538561    -0.5798241
C          -2.1986676    -2.9902963    -1.2907784
H          -3.1090452    -3.4977997    -1.5978523
C          -1.3553319    -3.5815982    -0.3516108
H          -1.6215831    -4.5457368     0.0750092
C          -0.1760304    -2.9624010     0.0850278
C           0.6766384    -3.6090325     1.1459027
H           0.1321448    -4.4204679     1.6384991
H           0.9730425    -2.8808646     1.9102346
H           1.5993195    -4.0091782     0.7140455
C           0.1513693    -1.7167161    -0.4847874
C          -0.6969237    -1.1153968    -1.4218209
H          -0.4173536    -0.1530613    -1.8443116
C          -1.8735277    -1.7426747    -1.8229392
H          -2.5221509    -1.2649975    -2.5518577
29
049_C14H13NO_0-2-9-10 (-45,) energy =    -671.3149608
N           1.3178921    -0.9980725    -0.1156751
H           1.1875126    -0.0091495     0.0513762
C           2.6202621    -1.4427039    -0.1983113
C           5.7097909     1.4167744     0.7043244
H           6.5039715     2.1235528     0.9291869
C           5.7824600     0.1059450     1.1840002
H           6.6335519    -0.2081892     1.7820779
C           4.7708925    -0.8043467     0.8870356
H           4.8279447    -1.8336232     1.2267546
C           3.6583707    -0.4040007     0.1355295
C           3.6008783     0.9053638    -0.3603868
H           2.7709778     1.2146331    -0.9917649
C           4.6229678     1.8124863    -0.0763904
H           4.5742279     2.8230724    -0.4727059
O           2.9251122    -2.5982479    -0.4633648
C          -2.1690219    -3.0355589    -1.3370074
H          -3.0717292    -3.5541590    -1.6482227
C          -1.3717894    -3.5720731    -0.3272396
H          -1.6662504    -4.5041750     0.1491286
C          -0.2043611    -2.9360878     0.1169062
C           0.5982137    -3.5206670     1.2504418
H           0.0257808    -4.2942391     1.7714871
H           0.8731240    -2.7479657     1.9781144
H           1.5324219    -3.9555485     0.8816065
C           0.1601888    -1.7330202    -0.5182342
C          -0.6417230    -1.1866784    -1.5269019
H          -0.3333343    -0.2570287    -1.9993472
C          -1.8081342    -1.8283748    -1.9352451
H          -2.4205718    -1.3940400    -2.7204212
29
049_C14H13NO_0-2-9-10 (-30,) energy =    -671.3158343
N           1.3038917    -0.9862356    -0.1504012
H           1.1650168     0.0070221    -0.0278129
C           2.6029427    -1.4441340    -0.1544746
C           5.7275890     1.3907525     0.7215496
H           6.5296834     2.0884743     0.9466146
C           5.8739615     0.0338098     1.0209655
H           6.7904233    -0.3268544     1.4800050
C           4.8486509    -0.8612556     0.7258428
H           4.9514011    -1.9215601     0.9317568
C           3.6548123    -0.4089930     0.1477590
C           3.5215942     0.9514280    -0.1643570
H           2.6297481     1.3208174    -0.6652214
C           4.5532409     1.8464529     0.1206014
H           4.4422535     2.8967161    -0.1348592
O           2.8974643    -2.6171008    -0.3511013
C          -2.1510866    -3.0798975    -1.3669503
H          -3.0459628    -3.6122435    -1.6776142
C          -1.3948624    -3.5562150    -0.2972270
H          -1.7133541    -4.4549624     0.2255543
C          -0.2391561    -2.9000539     0.1483007
C           0.5174014    -3.4170355     1.3445151
H          -0.0814437    -4.1496881     1.8942529
H           0.7766480    -2.6014761     2.0298775
H           1.4585365    -3.8836980     1.0373143
C           0.1571957    -1.7411638    -0.5471073
C          -0.6036149    -1.2551028    -1.6166052
H          -0.2702898    -0.3591326    -2.1348405
C          -1.7594744    -1.9148599    -2.0262936
H          -2.3397128    -1.5275756    -2.8591000
29
049_C14H13NO_0-2-9-10 (-15,) energy =    -671.3158545
N           1.2904755    -0.9545640    -0.1857651
H           1.1462646     0.0446365    -0.1793257
C           2.5864745    -1.4137955    -0.1089729
C           5.7616339     1.3844091     0.7297407
H           6.5781688     2.0683033     0.9451251
C           5.9547282     0.0048064     0.8305244
H           6.9232742    -0.3898282     1.1252323
C           4.9074980    -0.8690769     0.5505487
H           5.0386356    -1.9439510     0.6121973
C           3.6478137    -0.3803822     0.1758350
C           3.4660412     1.0065019     0.0698426
H           2.5169572     1.4301318    -0.2495022
C           4.5161680     1.8825599     0.3442405
H           4.3610640     2.9539747     0.2519182
O           2.8738119    -2.5987320    -0.2364091
C          -2.1087125    -3.1364939    -1.4034481
H          -2.9899908    -3.6906913    -1.7147325
C          -1.3957432    -3.5396715    -0.2755359
H          -1.7346878    -4.4036211     0.2912193
C          -0.2595415    -2.8522984     0.1729183
C           0.4481692    -3.2888576     1.4294053
H          -0.1767664    -3.9776693     2.0061748
H           0.6896777    -2.4291388     2.0653906
H           1.3957756    -3.7820109     1.1909358
C           0.1637378    -1.7393454    -0.5794939
C          -0.5538950    -1.3262573    -1.7080705
H          -0.2011833    -0.4647847    -2.2702864
C          -1.6915550    -2.0152723    -2.1204260
H          -2.2378321    -1.6845820    -2.9993338
29
049_C14H13NO_0-2-9-10 (0,) energy =    -671.3163800
N           1.2964612    -0.9502750    -0.2463469
H           1.2037051     0.0335783    -0.4568622
C           2.5824748    -1.4279049    -0.0843389
C           5.7737970     1.3632694     0.7080926
H           6.5967437     2.0467296     0.8991108
C           6.0121435    -0.0078252     0.5894643
H           7.0222325    -0.3961415     0.6874034
C           4.9561415    -0.8809788     0.3425583
H           5.1187344    -1.9483754     0.2401896
C           3.6446865    -0.4008861     0.2156324
C           3.4152126     0.9779423     0.3379284
H           2.4117916     1.3910154     0.2768363
C           4.4728486     1.8533872     0.5832385
H           4.2784044     2.9178974     0.6807774
O           2.8509021    -2.6221925    -0.1405774
C          -2.0801202    -3.1856142    -1.4288613
H          -2.9567220    -3.7526639    -1.7298857
C          -1.4134062    -3.5084227    -0.2479165
H          -1.7836593    -4.3230230     0.3700408
C          -0.2856281    -2.8008468     0.1894341
C           0.3693314    -3.1474566     1.5011790
H          -0.2837126    -3.7875866     2.1023435
H           0.5937495    -2.2442796     2.0809373
H           1.3206727    -3.6639803     1.3382658
C           0.1793131    -1.7517877    -0.6280747
C          -0.4922159    -1.4188403    -1.8104792
H          -0.1099776    -0.6056351    -2.4235668
C          -1.6225224    -2.1260961    -2.2117908
H          -2.1321133    -1.8568693    -3.1327133
29
049_C14H13NO_0-2-9-10 (15,) energy =    -671.3172979
N           1.3326989    -0.9656531    -0.2861685
H           1.2878381     0.0001905    -0.5823346
C           2.5997282    -1.4612992    -0.0360397
C           5.7548539     1.3792043     0.6914488
H           6.5667705     2.0801401     0.8657383
C           6.0338145     0.0434265     0.3912813
H           7.0637413    -0.2974374     0.3302413
C           4.9928526    -0.8545782     0.1701488
H           5.1859833    -1.8971538    -0.0592558
C           3.6590503    -0.4287947     0.2394671
C           3.3867054     0.9117484     0.5504242
H           2.3623593     1.2569971     0.6624058
C           4.4297852     1.8100522     0.7760610
H           4.2064800     2.8436327     1.0259897
O           2.8514470    -2.6598508    -0.0206003
C          -2.0535401    -3.1962289    -1.4480967
H          -2.9323227    -3.7620088    -1.7450888
C          -1.4337396    -3.4610826    -0.2278851
H          -1.8425020    -4.2291917     0.4243943
C          -0.3053538    -2.7519402     0.2053027
C           0.2976360    -3.0336059     1.5569402
H          -0.3908565    -3.6205344     2.1726517
H           0.5257828    -2.1025529     2.0892779
H           1.2403448    -3.5814524     1.4584979
C           0.2103832    -1.7635492    -0.6564801
C          -0.4140133    -1.4885469    -1.8791010
H           0.0061802    -0.7214967    -2.5259358
C          -1.5461128    -2.1951797    -2.2760363
H          -2.0187218    -1.9711277    -3.2282401
29
049_C14H13NO_0-2-9-10 (30,) energy =    -671.3173131
N           1.3645942    -0.9888829    -0.3169672
H           1.3546407    -0.0364230    -0.6580386
C           2.6092963    -1.4906212     0.0199502
C           5.7381866     1.3884814     0.6800474
H           6.5414374     2.1015558     0.8450744
C           6.0278786     0.1031128     0.2136235
H           7.0566265    -0.1846829     0.0147749
C           5.0000070    -0.8139658     0.0092800
H           5.2060493    -1.8226070    -0.3339285
C           3.6682526    -0.4484766     0.2477077
C           3.3847404     0.8369415     0.7308786
H           2.3622471     1.1160528     0.9714823
C           4.4167780     1.7512489     0.9457460
H           4.1892623     2.7419257     1.3298280
O           2.8465123    -2.6877593     0.1153505
C          -2.0319555    -3.2083149    -1.4680076
H          -2.9126049    -3.7717682    -1.7638334
C          -1.4563252    -3.4215837    -0.2165453
H          -1.9013631    -4.1467309     0.4606853
C          -0.3275651    -2.7127605     0.2164502
C           0.2245221    -2.9348259     1.6006740
H          -0.4964406    -3.4750371     2.2219331
H           0.4539701    -1.9816807     2.0918971
H           1.1584591    -3.5047011     1.5636963
C           0.2358393    -1.7809314    -0.6780087
C          -0.3443939    -1.5572781    -1.9326245
H           0.1117629    -0.8327757    -2.6036320
C          -1.4781400    -2.2612306    -2.3291778
H          -1.9161715    -2.0772998    -3.3061881
29
049_C14H13NO_0-2-9-10 (45,) energy =    -671.3160095
N           1.4155892    -1.3119744     0.3438023
H           1.5533155    -0.9882777     1.2925500
C           2.2452473    -0.7480445    -0.6068431
C           5.7049864     1.3380532     0.8696203
H           6.5851955     1.8680795     1.2234980
C           4.9395798     1.8699166    -0.1723448
H           5.2244157     2.8134993    -0.6297685
C           3.8180882     1.1859646    -0.6353045
H           3.2312374     1.5710242    -1.4633951
C           3.4309324    -0.0201092    -0.0363151
C           4.2127599    -0.5602362     0.9937239
H           3.9450830    -1.5193829     1.4296327
C           5.3457688     0.1186462     1.4454745
H           5.9518657    -0.3098329     2.2390995
O           2.0257957    -0.7945704    -1.8095684
C          -2.3056234    -3.1903159    -0.2970288
H          -3.2646902    -3.6764790    -0.4531469
C          -1.1633660    -3.6864705    -0.9230428
H          -1.2402135    -4.5660027    -1.5579016
C           0.0983723    -3.1026791    -0.7453667
C           1.3146611    -3.7092097    -1.3958884
H           1.0940565    -4.7157873    -1.7641277
H           2.1482977    -3.7794647    -0.6867968
H           1.6611878    -3.0931065    -2.2317156
C           0.1747899    -1.9614534     0.0777969
C          -0.9688222    -1.4647352     0.7151072
H          -0.8804720    -0.5815210     1.3436779
C          -2.2064027    -2.0769589     0.5372280
H          -3.0848752    -1.6794069     1.0377160
29
049_C14H13NO_0-2-9-10 (60,) energy =    -671.3137125
N           1.4050930    -1.2884163     0.3230240
H           1.5292870    -0.9317790     1.2618791
C           2.2822748    -0.7985362    -0.6238329
C           5.6971745     1.3521398     0.8695112
H           6.5682922     1.8957773     1.2251752
C           4.8151377     1.9567131    -0.0306380
H           5.0002463     2.9699633    -0.3768262
C           3.7044167     1.2572314    -0.4980549
H           3.0317558     1.7061751    -1.2228089
C           3.4455736    -0.0406137    -0.0384092
C           4.3432247    -0.6509991     0.8467670
H           4.1661587    -1.6719418     1.1753946
C           5.4652082     0.0453449     1.3003650
H           6.1604245    -0.4359104     1.9829556
O           2.1197585    -0.9179070    -1.8296762
C          -2.3215422    -3.1508805    -0.3337933
H          -3.2826193    -3.6316130    -0.4942931
C          -1.1672656    -3.6993774    -0.8900816
H          -1.2372846    -4.6135555    -1.4747570
C           0.0973516    -3.1245295    -0.7032543
C           1.3243757    -3.7873173    -1.2740780
H           1.0982139    -4.8095477    -1.5924541
H           2.1309366    -3.8311797    -0.5321984
H           1.7117985    -3.2256735    -2.1299362
C           0.1643188    -1.9377917     0.0535475
C          -0.9916811    -1.3880333     0.6212490
H          -0.9099996    -0.4708968     1.2000872
C          -2.2324038    -1.9919142     0.4371571
H          -3.1205817    -1.5532230     0.8831709
29
049_C14H13NO_0-2-9-10 (75,) energy =    -671.3112951
N           1.3996574    -1.2760255     0.2968809
H           1.5061079    -0.8756814     1.2202833
C           2.3202077    -0.8622771    -0.6429560
C           5.6845880     1.3668270     0.8632917
H           6.5415596     1.9301261     1.2226288
C           4.6767976     2.0111215     0.1413753
H           4.7491981     3.0758295    -0.0635667
C           3.5808293     1.2884812    -0.3284829
H           2.8080545     1.7805899    -0.9125289
C           3.4719910    -0.0807613    -0.0553498
C           4.4908289    -0.7262811     0.6555513
H           4.4210524    -1.7937500     0.8482118
C           5.5934484    -0.0030514     1.1140686
H           6.3821293    -0.5110364     1.6625689
O           2.2119766    -1.0680595    -1.8423316
C          -2.3435005    -3.0999240    -0.3788390
H          -3.3091565    -3.5695645    -0.5446466
C          -1.1829662    -3.7072642    -0.8550291
H          -1.2530790    -4.6555608    -1.3825571
C           0.0872043    -3.1481288    -0.6574517
C           1.3185071    -3.8724495    -1.1368910
H           1.0806724    -4.9088480    -1.3952781
H           2.0959936    -3.8831410    -0.3634094
H           1.7496170    -3.3770748    -2.0125212
C           0.1541980    -1.9168245     0.0240077
C          -1.0083139    -1.3076366     0.5118502
H          -0.9256350    -0.3572192     1.0340531
C          -2.2553097    -1.8959892     0.3199740
H          -3.1485824    -1.4111796     0.7036772
29
049_C14H13NO_0-2-9-10 (90,) energy =    -671.3100692
N           1.4080564    -1.2495234     0.2617535
H           1.4944046    -0.7960023     1.1625185
C           2.3636701    -0.9097849    -0.6717990
C           5.6654771     1.3815364     0.8895523
H           6.5027814     1.9599931     1.2704563
C           4.5399656     2.0319064     0.3801391
H           4.4994161     3.1176865     0.3615860
C           3.4647485     1.2898493    -0.1105050
H           2.5932571     1.7961801    -0.5175625
C           3.5092134    -0.1092040    -0.0919814
C           4.6405494    -0.7582449     0.4162527
H           4.6810604    -1.8442307     0.4236599
C           5.7147039    -0.0138354     0.9052587
H           6.5905317    -0.5239827     1.2971805
O           2.3084909    -1.2207613    -1.8516099
C          -2.3458549    -3.0489121    -0.4243085
H          -3.3141632    -3.5121328    -0.5927685
C          -1.1808030    -3.7140808    -0.8021916
H          -1.2505311    -4.6998873    -1.2558201
C           0.0921276    -3.1643888    -0.5961974
C           1.3265996    -3.9455070    -0.9656731
H           1.0783255    -4.9945389    -1.1536738
H           2.0709771    -3.9091173    -0.1610870
H           1.8027215    -3.5267144    -1.8578404
C           0.1584427    -1.8843338    -0.0119624
C          -1.0087610    -1.2162460     0.3769259
H          -0.9261340    -0.2290730     0.8257386
C          -2.2597174    -1.7947059     0.1799610
H          -3.1570140    -1.2643565     0.4862055
29
049_C14H13NO_0-2-9-10 (105,) energy =    -671.3107691
N           1.4047928    -1.2093318     0.2259776
H           1.4640873    -0.7013726     1.0995133
C           2.3919258    -0.9329167    -0.6966461
C           5.6442832     1.3870690     0.9217172
H           6.4677411     1.9686565     1.3272099
C           4.4240417     2.0037994     0.6417898
H           4.2950400     3.0671139     0.8251899
C           3.3643814     1.2549227     0.1264049
H           2.4144360     1.7366609    -0.0925411
C           3.5273200    -0.1115134    -0.1305092
C           4.7522874    -0.7269138     0.1536453
H           4.8785160    -1.7869794    -0.0479707
C           5.8057352     0.0208290     0.6787858
H           6.7536879    -0.4629296     0.8984015
O           2.3887541    -1.3490044    -1.8453629
C          -2.3397593    -3.0191209    -0.4855535
H          -3.3054479    -3.4854961    -0.6603276
C          -1.1677758    -3.7251748    -0.7517821
H          -1.2300298    -4.7446462    -1.1249325
C           0.1012970    -3.1720496    -0.5324885
C           1.3422239    -3.9904996    -0.7793089
H           1.0910662    -5.0494004    -0.8940113
H           2.0492445    -3.8940914     0.0533625
H           1.8625051    -3.6483302    -1.6795029
C           0.1578085    -1.8487041    -0.0537300
C          -1.0165411    -1.1387902     0.2225215
H          -0.9414762    -0.1184921     0.5914143
C          -2.2649763    -1.7194788     0.0152401
H          -3.1683313    -1.1567251     0.2331441
29
049_C14H13NO_0-2-9-10 (120,) energy =    -671.3127591
N           1.3897231    -1.1746611     0.2076218
H           1.4210503    -0.6243209     1.0563072
C           2.4173852    -0.9632318    -0.6882849
C           5.6559158     1.3797843     0.9155698
H           6.4790262     1.9615998     1.3214694
C           4.3755516     1.9311809     0.8510508
H           4.1997103     2.9451621     1.1999874
C           3.3167084     1.1795997     0.3381079
H           2.3204906     1.6128025     0.2841895
C           3.5390742    -0.1186777    -0.1376697
C           4.8262943    -0.6662381    -0.0734716
H           4.9941095    -1.6706535    -0.4507341
C           5.8786147     0.0793624     0.4550273
H           6.8741039    -0.3531930     0.5069218
O           2.4647381    -1.4678506    -1.8011333
C          -2.3406234    -2.9958476    -0.5483225
H          -3.3030312    -3.4645644    -0.7346505
C          -1.1662388    -3.7282184    -0.7137555
H          -1.2238152    -4.7700336    -1.0199352
C           0.0983484    -3.1725668    -0.4752950
C           1.3392382    -4.0171335    -0.6080663
H           1.0806848    -5.0792072    -0.6601315
H           2.0094630    -3.8685397     0.2469566
H           1.9032308    -3.7427977    -1.5050303
C           0.1488407    -1.8203645    -0.0846523
C          -1.0283438    -1.0837097     0.0911683
H          -0.9574476    -0.0414722     0.3935717
C          -2.2731162    -1.6662571    -0.1322994
H          -3.1786501    -1.0824442     0.0069499
29
049_C14H13NO_0-2-9-10 (135,) energy =    -671.3147202
N           1.3553935    -1.1528835     0.2163715
H           1.3668506    -0.5915922     1.0575972
C           2.4235103    -0.9992104    -0.6418067
C           5.6743539     1.3783228     0.8819488
H           6.5049881     1.9659624     1.2634459
C           4.3656172     1.8395801     1.0312909
H           4.1745169     2.7911127     1.5199752
C           3.2986097     1.0803279     0.5485913
H           2.2828990     1.4554206     0.6523628
C           3.5350118    -0.1367979    -0.1041342
C           4.8518173    -0.5875229    -0.2619583
H           5.0248465    -1.5228959    -0.7848898
C           5.9150710     0.1630609     0.2352285
H           6.9331770    -0.1976002     0.1163943
O           2.5072868    -1.5625264    -1.7253546
C          -2.3554157    -2.9803850    -0.6156550
H          -3.3132436    -3.4502184    -0.8218273
C          -1.1835429    -3.7323961    -0.6808438
H          -1.2388942    -4.7895888    -0.9293004
C           0.0744964    -3.1753554    -0.4131402
C           1.3108389    -4.0364766    -0.4394318
H           1.0435955    -5.0976816    -0.4427550
H           1.9435805    -3.8442711     0.4351112
H           1.9175321    -3.8185265    -1.3239438
C           0.1223862    -1.8033007    -0.0988655
C          -1.0525654    -1.0464118    -0.0245303
H          -0.9832192     0.0110951     0.2192081
C          -2.2921494    -1.6293465    -0.2749019
H          -3.1962172    -1.0299087    -0.2151814
29
049_C14H13NO_0-2-9-10 (150,) energy =    -671.3157778
N           1.3291805    -1.1340616     0.2293066
H           1.3067272    -0.5520906     1.0550735
C           2.4407343    -1.0372244    -0.5786112
C           5.7006170     1.3978219     0.8383060
H           6.5363653     1.9994986     1.1851976
C           4.3957463     1.7467308     1.1897120
H           4.2110392     2.6261591     1.8005562
C           3.3226380     0.9714347     0.7492151
H           2.3112890     1.2782362     1.0058268
C           3.5440337    -0.1565796    -0.0533273
C           4.8560170    -0.4868092    -0.4185668
H           5.0111627    -1.3471755    -1.0612487
C           5.9280935     0.2800085     0.0313166
H           6.9420517     0.0089207    -0.2499386
O           2.5576090    -1.6505142    -1.6327791
C          -2.3561789    -2.9662865    -0.6994172
H          -3.3082692    -3.4362969    -0.9303435
C          -1.1917573    -3.7319238    -0.6682658
H          -1.2478038    -4.7995662    -0.8669306
C           0.0581698    -3.1746425    -0.3652385
C           1.2832752    -4.0484531    -0.2865010
H           1.0029543    -5.1055839    -0.2476462
H           1.8760262    -3.8171354     0.6063577
H           1.9345713    -3.8834544    -1.1504846
C           0.1071340    -1.7891630    -0.1167324
C          -1.0607586    -1.0181637    -0.1391416
H          -0.9901959     0.0494734     0.0547853
C          -2.2933668    -1.6006451    -0.4229349
H          -3.1918198    -0.9901024    -0.4387399
29
049_C14H13NO_0-2-9-10 (165,) energy =    -671.3158603
N           1.2984289    -1.1018212     0.2330471
H           1.2184261    -0.4511669     1.0008719
C           2.4497619    -1.0610961    -0.5211925
C           5.7286713     1.4148535     0.7936040
H           6.5704195     2.0265898     1.1067599
C           4.4656021     1.6280203     1.3478141
H           4.3184283     2.4101848     2.0874627
C           3.3844702     0.8420169     0.9490889
H           2.4099543     1.0532191     1.3826342
C           3.5522107    -0.1675096    -0.0102185
C           4.8223059    -0.3613090    -0.5716278
H           4.9330608    -1.1323259    -1.3263958
C           5.9035042     0.4185130    -0.1695390
H           6.8830040     0.2514859    -0.6092611
O           2.5948372    -1.7282631    -1.5393472
C          -2.3461927    -2.9648229    -0.7892008
H          -3.2885047    -3.4423548    -1.0435894
C          -1.1909501    -3.7330941    -0.6539969
H          -1.2445972    -4.8099450    -0.7955036
C           0.0457071    -3.1660958    -0.3166703
C           1.2574445    -4.0408770    -0.1252466
H           0.9655006    -5.0914673    -0.0319173
H           1.8110214    -3.7563859     0.7772674
H           1.9494512    -3.9365896    -0.9668183
C           0.0925914    -1.7691319    -0.1429964
C          -1.0666060    -0.9949468    -0.2698572
H          -0.9981631     0.0816164    -0.1323288
C          -2.2870747    -1.5862507    -0.5859264
H          -3.1785221    -0.9729601    -0.6830584
29
049_C14H13NO_0-2-9-10 (180,) energy =    -671.3163838
N           1.2649809    -1.0320054     0.1879237
H           1.1129224    -0.2258822     0.7778779
C           2.4497028    -1.0619271    -0.5218691
C           5.7478731     1.3845778     0.7973699
H           6.5942269     1.9901060     1.1102390
C           4.5607694     1.4102408     1.5311120
H           4.4815182     2.0300636     2.4199502
C           3.4740472     0.6320526     1.1327575
H           2.5775025     0.6511593     1.7467100
C           3.5566346    -0.1739806    -0.0127419
C           4.7597289    -0.2035717    -0.7325247
H           4.8131923    -0.8429139    -1.6069605
C           5.8455235     0.5715611    -0.3341301
H           6.7697211     0.5402030    -0.9046763
O           2.6172363    -1.7960246    -1.4885552
C          -2.3275229    -2.9887493    -0.8424107
H          -3.2567780    -3.4910137    -1.0969752
C          -1.1784602    -3.7363046    -0.5890907
H          -1.2241934    -4.8216283    -0.6393531
C           0.0408967    -3.1368703    -0.2460973
C           1.2430884    -3.9861682     0.0751594
H           0.9481607    -5.0268399     0.2414604
H           1.7519365    -3.6248431     0.9766669
H           1.9752090    -3.9502790    -0.7379302
C           0.0790217    -1.7295801    -0.1902317
C          -1.0745937    -0.9754240    -0.4356489
H          -1.0158872     0.1097255    -0.3878080
C          -2.2785233    -1.5977190    -0.7553156
H          -3.1650171    -0.9988917    -0.9445137
