29
049_C14H13NO_2-0-24-25 (-165,) energy =    -671.3108710
N           1.3391847    -0.9658512    -0.4111247
H           1.1959188    -0.0303123    -0.0557403
C           2.6636953    -1.2857806    -0.6407185
C           5.5976614     1.4778689     0.8806590
H           6.3522087     2.1671648     1.2500074
C           4.3671207     1.3748265     1.5308113
H           4.1648900     1.9735795     2.4146546
C           3.3969195     0.4918959     1.0548184
H           2.4587871     0.3938846     1.5954634
C           3.6497297    -0.2965545    -0.0771787
C           4.8971343    -0.2026234    -0.7100770
H           5.0873161    -0.8367048    -1.5697048
C           5.8615318     0.6843779    -0.2393058
H           6.8214065     0.7567882    -0.7433172
O           3.0374921    -2.2438630    -1.3057643
C          -2.4025782    -2.9236345    -0.5065418
H          -3.3757496    -3.4054571    -0.5313562
C          -1.2433232    -3.6901412    -0.4318228
H          -1.3266806    -4.7727876    -0.3752620
C           0.0454276    -3.1340392    -0.3813911
C           1.2100441    -4.0624412    -0.1372925
H           0.8391264    -5.0651837     0.0968516
H           1.8163193    -3.7244423     0.7113845
H           1.8863562    -4.1164772    -0.9926120
C           0.1409552    -1.7255282    -0.4781689
C          -1.0337336    -0.9511283    -0.4912789
H          -0.9445350     0.1333466    -0.5245868
C          -2.2941107    -1.5338280    -0.5133675
H          -3.1795445    -0.9048742    -0.5384393
29
049_C14H13NO_2-0-24-25 (-150,) energy =    -671.3143589
N           1.2955474    -0.9286236    -0.2547502
H           1.1542062    -0.0198421     0.1645437
C           2.5923395    -1.2118332    -0.6343242
C           5.6649263     1.4120788     0.8557467
H           6.4525521     2.0684219     1.2159413
C           4.4814610     1.2775722     1.5831972
H           4.3493498     1.8182853     2.5163674
C           3.4685601     0.4367686     1.1205682
H           2.5695998     0.3108849     1.7186522
C           3.6308784    -0.2768516    -0.0758769
C           4.8315343    -0.1518384    -0.7885333
H           4.9513160    -0.7283774    -1.6998280
C           5.8390779     0.6925681    -0.3297731
H           6.7623832     0.7892053    -0.8944228
O           2.8932430    -2.1158682    -1.4046141
C          -2.3760154    -2.9679149    -0.6558695
H          -3.3297534    -3.4785962    -0.7541913
C          -1.2060222    -3.7013502    -0.4767154
H          -1.2618656    -4.7855174    -0.4136706
C           0.0534213    -3.1004353    -0.3276406
C           1.2377915    -3.9686918     0.0139251
H           0.8977054    -4.9672397     0.3056837
H           1.8067657    -3.5489740     0.8524769
H           1.9376280    -4.0546917    -0.8211042
C           0.1119643    -1.6919261    -0.4310000
C          -1.0741510    -0.9503304    -0.5578080
H          -1.0110469     0.1353089    -0.6000931
C          -2.3101713    -1.5750452    -0.6745097
H          -3.2102728    -0.9766685    -0.7840230
29
049_C14H13NO_2-0-24-25 (-135,) energy =    -671.3167297
N           1.2882638    -0.9616316    -0.0661242
H           1.1454664    -0.0664678     0.3815538
C           2.5497077    -1.1821470    -0.5849033
C           5.7006405     1.4091625     0.7911521
H           6.5065919     2.0592772     1.1208591
C           4.5820845     1.2163795     1.6034989
H           4.5196664     1.7057027     2.5716490
C           3.5457244     0.3837268     1.1799506
H           2.6991427     0.2115997     1.8395128
C           3.6199300    -0.2639747    -0.0618440
C           4.7564788    -0.0812937    -0.8616072
H           4.8092034    -0.6076920    -1.8089142
C           5.7868327     0.7557158    -0.4412488
H           6.6597836     0.8975493    -1.0725155
O           2.7915091    -2.0399606    -1.4252450
C          -2.3432698    -2.9733490    -0.8054129
H          -3.2848177    -3.4838080    -0.9877046
C          -1.1937396    -3.7094821    -0.5262983
H          -1.2533966    -4.7941288    -0.4758888
C           0.0446181    -3.1037667    -0.2696217
C           1.2209497    -3.9544454     0.1348061
H           0.8859763    -4.9575421     0.4165262
H           1.7463136    -3.5182603     0.9931803
H           1.9543869    -4.0348190    -0.6726879
C           0.1051905    -1.6959987    -0.3511586
C          -1.0574359    -0.9519100    -0.5981249
H          -0.9892692     0.1332922    -0.6368957
C          -2.2775822    -1.5803549    -0.8247664
H          -3.1647660    -0.9851918    -1.0221202
29
049_C14H13NO_2-0-24-25 (-120,) energy =    -671.3174461
N           1.2876127    -1.0371600     0.1243014
H           1.1469355    -0.1636119     0.6145553
C           2.5061161    -1.1759149    -0.5163466
C           5.6942713     1.4249821     0.7495963
H           6.5081000     2.0793177     1.0503527
C           4.6446724     1.1646561     1.6322146
H           4.6446215     1.6055444     2.6253296
C           3.5979575     0.3268871     1.2460795
H           2.8069950     0.1023111     1.9567981
C           3.5931875    -0.2589103    -0.0282144
C           4.6615627    -0.0088662    -0.9002240
H           4.6542827    -0.4882365    -1.8735861
C           5.7017345     0.8338353    -0.5166960
H           6.5211199     1.0283153    -1.2033205
O           2.6984196    -1.9844656    -1.4155385
C          -2.3189356    -2.9637021    -0.9089402
H          -3.2519514    -3.4576811    -1.1658901
C          -1.2118663    -3.7210883    -0.5293928
H          -1.2938517    -4.8045191    -0.4847449
C           0.0097371    -3.1313615    -0.1779264
C           1.1651678    -3.9849994     0.2763517
H           0.8258891    -4.9956478     0.5234748
H           1.6471016    -3.5579118     1.1637769
H           1.9331660    -4.0492352    -0.5012871
C           0.0954161    -1.7267092    -0.2456542
C          -1.0156376    -0.9616981    -0.6205572
H          -0.9207654     0.1208822    -0.6676880
C          -2.2237323    -1.5727196    -0.9456993
H          -3.0773802    -0.9662954    -1.2351925
29
049_C14H13NO_2-0-24-25 (-105,) energy =    -671.3165068
N           1.3242982    -1.1126303     0.2303699
H           1.1859136    -0.2724535     0.7780172
C           2.4947264    -1.1456237    -0.5115109
C           5.6890462     1.4672280     0.7135890
H           6.5034171     2.1261334     1.0027319
C           4.7055033     1.1219067     1.6420743
H           4.7582268     1.5016644     2.6587617
C           3.6581673     0.2783694     1.2706823
H           2.9203753    -0.0120450     2.0138432
C           3.5868291    -0.2288069    -0.0349910
C           4.5897887     0.1061654    -0.9548544
H           4.5322130    -0.3132681    -1.9538727
C           5.6301326     0.9548966    -0.5851747
H           6.3982602     1.2152568    -1.3082634
O           2.6445623    -1.8828509    -1.4769972
C          -2.2626857    -2.9471840    -1.0264728
H          -3.1880581    -3.4218246    -1.3413702
C          -1.2113011    -3.7256628    -0.5426656
H          -1.3266108    -4.8053290    -0.4833793
C          -0.0041690    -3.1560485    -0.1189470
C           1.1212629    -4.0158184     0.3961639
H           0.7829150    -5.0423692     0.5663491
H           1.5236545    -3.6236800     1.3373076
H           1.9480339    -4.0356788    -0.3227282
C           0.1202316    -1.7570575    -0.2006870
C          -0.9229289    -0.9735425    -0.7030518
H          -0.7882031     0.1029721    -0.7776122
C          -2.1203144    -1.5622379    -1.1053929
H          -2.9273026    -0.9439598    -1.4885223
29
049_C14H13NO_2-0-24-25 (-90,) energy =    -671.3145191
N           1.3473926    -1.1772849     0.2597450
H           1.2365994    -0.4220268     0.9249875
C           2.4553200    -1.0885647    -0.5669344
C           5.6908582     1.4514316     0.7043218
H           6.5137679     2.0941228     1.0055359
C           4.7883638     0.9795147     1.6590185
H           4.9127186     1.2437181     2.7056649
C           3.7295015     0.1569469     1.2735075
H           3.0565690    -0.2327827     2.0326565
C           3.5656683    -0.2024264    -0.0720970
C           4.4885282     0.2587168    -1.0205358
H           4.3608225    -0.0483794    -2.0533416
C           5.5401579     1.0869529    -0.6362747
H           6.2455109     1.4461470    -1.3807244
O           2.5413126    -1.7080997    -1.6185293
C          -2.2494209    -2.9468988    -1.0675077
H          -3.1755988    -3.4072859    -1.4009877
C          -1.2586970    -3.7299938    -0.4746561
H          -1.4180947    -4.7990023    -0.3552473
C          -0.0535648    -3.1737086    -0.0290431
C           1.0279331    -4.0343850     0.5740539
H           0.6754911    -5.0595217     0.7231670
H           1.3657893    -3.6406871     1.5390941
H           1.9040361    -4.0655273    -0.0844648
C           0.1264798    -1.7889755    -0.1872177
C          -0.8485380    -1.0053115    -0.8087594
H          -0.6648330     0.0570784    -0.9474183
C          -2.0447594    -1.5780562    -1.2386902
H          -2.8027370    -0.9614087    -1.7134873
29
049_C14H13NO_2-0-24-25 (-75,) energy =    -671.3137721
N           1.2352217    -0.9672105     0.0251665
H           1.3971213    -0.8670609     1.0172916
C           2.2735364    -0.6595885    -0.8304079
C           5.8489207     1.1009840     0.8148618
H           6.7563774     1.5523016     1.2069499
C           5.0107419     0.3714479     1.6592656
H           5.2673971     0.2444062     2.7074291
C           3.8437224    -0.2056385     1.1578157
H           3.2268458    -0.7958360     1.8311273
C           3.5020263    -0.0606960    -0.1944624
C           4.3610995     0.6576441    -1.0376401
H           4.0949810     0.7416480    -2.0859439
C           5.5220854     1.2405078    -0.5363036
H           6.1749843     1.8015225    -1.1994139
O           2.1943499    -0.8194237    -2.0413820
C          -2.1959682    -3.1597688    -1.0732603
H          -3.0842240    -3.7235647    -1.3452567
C          -1.2227852    -3.7446097    -0.2632630
H          -1.3590234    -4.7637785     0.0908650
C          -0.0617644    -3.0516794     0.1007075
C           0.9871041    -3.7010770     0.9719354
H           0.7673828    -4.7626852     1.1184804
H           1.0390317    -3.2409629     1.9689665
H           1.9858838    -3.6189066     0.5282227
C           0.0948652    -1.7352139    -0.3701870
C          -0.8845353    -1.1394623    -1.1679679
H          -0.7326874    -0.1198711    -1.5063719
C          -2.0246819    -1.8533710    -1.5315574
H          -2.7774842    -1.3878404    -2.1614377
29
049_C14H13NO_2-0-24-25 (-60,) energy =    -671.3156475
N           1.2743743    -1.0179408    -0.0068215
H           1.5092002    -1.0435058     0.9749797
C           2.2468983    -0.5599044    -0.8749266
C           5.8748524     1.0563174     0.7993406
H           6.7936494     1.4754749     1.2005686
C           5.1324709     0.1483736     1.5558409
H           5.4761968    -0.1499136     2.5424846
C           3.9507442    -0.3873707     1.0431443
H           3.4101198    -1.1188545     1.6389510
C           3.4990737    -0.0217381    -0.2331067
C           4.2634190     0.8745924    -0.9929788
H           3.9143132     1.1291738    -1.9880736
C           5.4385249     1.4160286    -0.4782588
H           6.0169786     2.1168414    -1.0740135
O           2.0928845    -0.5419171    -2.0891943
C          -2.1722596    -3.1830525    -1.0993411
H          -3.0650909    -3.7410562    -1.3677595
C          -1.2703884    -3.7149234    -0.1783777
H          -1.4652349    -4.6877322     0.2671410
C          -0.1051726    -3.0291991     0.1840941
C           0.8642637    -3.6262534     1.1770695
H           0.5938038    -4.6604011     1.4093115
H           0.8756678    -3.0774263     2.1303695
H           1.8906486    -3.6249968     0.7906606
C           0.1331433    -1.7724657    -0.4045030
C          -0.7785052    -1.2244041    -1.3123172
H          -0.5690206    -0.2523439    -1.7430411
C          -1.9215143    -1.9353391    -1.6709570
H          -2.6187410    -1.5083461    -2.3864350
29
049_C14H13NO_2-0-24-25 (-45,) energy =    -671.3174425
N           1.3261092    -1.0898155    -0.0515779
H           1.6112520    -1.1955450     0.9107155
C           2.2293992    -0.4810408    -0.9006114
C           5.8919020     1.0244969     0.8004295
H           6.8177473     1.4186321     1.2106493
C           5.2264924    -0.0155365     1.4512308
H           5.6376765    -0.4413035     2.3623867
C           4.0360526    -0.5200360     0.9273408
H           3.5572126    -1.3553354     1.4326835
C           3.4980933     0.0103699    -0.2542408
C           4.1859126     1.0397633    -0.9118369
H           3.7714988     1.4230274    -1.8382689
C           5.3699772     1.5488438    -0.3847762
H           5.8885914     2.3532109    -0.8992366
O           2.0123474    -0.3044430    -2.0930900
C          -2.1635102    -3.2029733    -1.1065303
H          -3.0661534    -3.7504897    -1.3630437
C          -1.3167285    -3.6831056    -0.1080857
H          -1.5638058    -4.6061941     0.4112886
C          -0.1417347    -3.0097873     0.2421787
C           0.7630278    -3.5560079     1.3223020
H           0.4247250    -4.5442122     1.6467935
H           0.7805988    -2.9168799     2.2178704
H           1.7986426    -3.6566691     0.9732521
C           0.1701928    -1.8161123    -0.4411065
C          -0.6864985    -1.3173327    -1.4301146
H          -0.4243327    -0.3987987    -1.9385153
C          -1.8416844    -2.0186292    -1.7689737
H          -2.4942406    -1.6294074    -2.5456619
29
049_C14H13NO_2-0-24-25 (-30,) energy =    -671.3187978
N           1.3799371    -1.1530039    -0.1190983
H           1.6996068    -1.3127388     0.8243252
C           2.2168066    -0.4110253    -0.9271607
C           5.9069672     0.9932791     0.7991206
H           6.8384700     1.3638626     1.2183634
C           5.3146359    -0.1571766     1.3221333
H           5.7886738    -0.6917825     2.1406974
C           4.1171030    -0.6320206     0.7867785
H           3.6950461    -1.5522149     1.1836128
C           3.4993853     0.0393400    -0.2784736
C           4.1142125     1.1807194    -0.8115554
H           3.6390957     1.6748395    -1.6524375
C           5.3052654     1.6592782    -0.2717026
H           5.7672028     2.5506257    -0.6873147
O           1.9442796    -0.0977161    -2.0803495
C          -2.1665604    -3.2006981    -1.1159819
H          -3.0816825    -3.7347126    -1.3558909
C          -1.3658769    -3.6260209    -0.0562604
H          -1.6616120    -4.4939295     0.5287118
C          -0.1784481    -2.9677970     0.2764260
C           0.6703135    -3.4588968     1.4267195
H           0.2538625    -4.3782768     1.8478328
H           0.7258832    -2.7308762     2.2499701
H           1.6998119    -3.6774671     1.1128504
C           0.2008287    -1.8438339    -0.4906976
C          -0.6076355    -1.4003553    -1.5464547
H          -0.2961756    -0.5392489    -2.1209775
C          -1.7793778    -2.0869194    -1.8594273
H          -2.3932297    -1.7390256    -2.6858182
29
049_C14H13NO_2-0-24-25 (-15,) energy =    -671.3196652
N           1.4344105    -1.2298876    -0.1742638
H           1.7906620    -1.4384591     0.7460065
C           2.2015113    -0.3674097    -0.9292002
C           5.9176813     0.9682496     0.7948744
H           6.8545237     1.3229214     1.2159567
C           5.3955966    -0.2637173     1.1919221
H           5.9298740    -0.8767073     1.9125833
C           4.1913366    -0.7185966     0.6542530
H           3.8232759    -1.6992909     0.9459498
C           3.4969614     0.0548532    -0.2874479
C           4.0413626     1.2798141    -0.6972591
H           3.5074396     1.8552066    -1.4461857
C           5.2389431     1.7375410    -0.1537835
H           5.6460857     2.6934200    -0.4718068
O           1.8695132     0.0622800    -2.0285895
C          -2.1589307    -3.2253598    -1.1108400
H          -3.0841345    -3.7489093    -1.3343243
C          -1.3990229    -3.5897650     0.0005240
H          -1.7362386    -4.4002736     0.6426393
C          -0.2021657    -2.9419310     0.3164634
C           0.5969522    -3.3685446     1.5268802
H           0.1227999    -4.2220622     2.0193341
H           0.6764939    -2.5713800     2.2808745
H           1.6189616    -3.6731863     1.2616870
C           0.2336925    -1.8901803    -0.5228611
C          -0.5303205    -1.5115598    -1.6365858
H          -0.1789464    -0.7056819    -2.2648247
C          -1.7159635    -2.1852600    -1.9254518
H          -2.2954718    -1.8848723    -2.7942689
29
049_C14H13NO_2-0-24-25 (0,) energy =    -671.3200594
N           1.4958208    -1.3004392    -0.2312939
H           1.8829771    -1.5563758     0.6641682
C           2.1921165    -0.3278953    -0.9184889
C           5.9351505     0.9555332     0.7859257
H           6.8773616     1.2984284     1.2047774
C           5.4732588    -0.3312612     1.0665820
H           6.0597051    -0.9975387     1.6932504
C           4.2622004    -0.7714942     0.5319059
H           3.9399400    -1.7912636     0.7279142
C           3.5010125     0.0721829    -0.2903976
C           3.9848409     1.3541415    -0.5858613
H           3.3989571     1.9862316    -1.2448617
C           5.1893283     1.7960724    -0.0446407
H           5.5495273     2.7955565    -0.2724522
O           1.7963191     0.2032312    -1.9504490
C          -2.1481268    -3.2264387    -1.1192397
H          -3.0843990    -3.7347851    -1.3313434
C          -1.4272184    -3.5371822     0.0336419
H          -1.8060294    -4.2912692     0.7198069
C          -0.2196505    -2.9045439     0.3383556
C           0.5332106    -3.2732197     1.5966656
H          -0.0018395    -4.0491845     2.1510596
H           0.6534698    -2.4191832     2.2788952
H           1.5372325    -3.6662350     1.3812398
C           0.2704187    -1.9242606    -0.5568477
C          -0.4505113    -1.6047077    -1.7171961
H          -0.0614668    -0.8497640    -2.3849399
C          -1.6512863    -2.2584278    -1.9895187
H          -2.1984413    -2.0009596    -2.8924497
29
049_C14H13NO_2-0-24-25 (15,) energy =    -671.3199804
N           1.5485706    -1.3766288    -0.2795225
H           1.9715623    -1.6847452     0.5829397
C           2.1676239    -0.3020242    -0.8859672
C           5.9481879     0.9415352     0.7627509
H           6.8985852     1.2754657     1.1702183
C           5.5475365    -0.3858953     0.9220034
H           6.1896842    -1.0915279     1.4419139
C           4.3259598    -0.8147603     0.4020551
H           4.0495384    -1.8617306     0.4994985
C           3.4932708     0.0814024    -0.2842604
C           3.9150383     1.4064925    -0.4600803
H           3.2729654     2.0815578    -1.0160829
C           5.1300509     1.8359691     0.0674617
H           5.4422639     2.8681162    -0.0659915
O           1.6957619     0.3173660    -1.8327294
C          -2.1423902    -3.2286203    -1.1244340
H          -3.0897703    -3.7197851    -1.3274839
C          -1.4617392    -3.4843225     0.0657459
H          -1.8825825    -4.1779367     0.7901403
C          -0.2430560    -2.8687961     0.3619697
C           0.4647621    -3.1719854     1.6632127
H          -0.1242629    -3.8665689     2.2685086
H           0.6243127    -2.2701396     2.2707242
H           1.4474725    -3.6405945     1.5059381
C           0.3004232    -1.9662220    -0.5819876
C          -0.3760677    -1.7077950    -1.7834272
H           0.0497214    -1.0082217    -2.4882957
C          -1.5917614    -2.3378127    -2.0437779
H          -2.1064380    -2.1258296    -2.9770828
29
049_C14H13NO_2-0-24-25 (30,) energy =    -671.3194114
N           1.6050780    -1.4650830    -0.3281103
H           2.0574238    -1.8178121     0.5023160
C           2.1435136    -0.2975311    -0.8372810
C           5.9589360     0.9303567     0.7388956
H           6.9171618     1.2608984     1.1305180
C           5.6168634    -0.4222082     0.7787877
H           6.3120299    -1.1493830     1.1893625
C           4.3854695    -0.8470506     0.2790661
H           4.1525232    -1.9088767     0.2806235
C           3.4843852     0.0786607    -0.2674460
C           3.8464189     1.4314981    -0.3247793
H           3.1501971     2.1317562    -0.7743379
C           5.0715931     1.8558602     0.1830607
H           5.3378374     2.9085228     0.1425195
O           1.5910468     0.3942674    -1.6837092
C          -2.1395760    -3.2245625    -1.1308831
H          -3.1005458    -3.6917272    -1.3267616
C          -1.4995399    -3.4265604     0.0914716
H          -1.9647318    -4.0542528     0.8481505
C          -0.2657061    -2.8365858     0.3797442
C           0.3962082    -3.0746503     1.7179430
H          -0.2356673    -3.7006810     2.3541347
H           0.5798914    -2.1374339     2.2605555
H           1.3620325    -3.5929764     1.6227897
C           0.3332410    -2.0194472    -0.6053560
C          -0.2981139    -1.8230012    -1.8417357
H           0.1715732    -1.1905026    -2.5820009
C          -1.5319380    -2.4195670    -2.0932400
H          -2.0142033    -2.2538008    -3.0527496
29
049_C14H13NO_2-0-24-25 (45,) energy =    -671.3183976
N           1.6602431    -1.5563998    -0.3775096
H           2.1523718    -1.9724617     0.4001506
C           2.1138094    -0.3069674    -0.7674880
C           5.9702888     0.9178229     0.7040662
H           6.9379377     1.2473133     1.0727918
C           5.6808505    -0.4453189     0.6239736
H           6.4256123    -1.1798743     0.9178918
C           4.4377736    -0.8697795     0.1537975
H           4.2428145    -1.9349807     0.0594481
C           3.4726704     0.0676702    -0.2425319
C           3.7803770     1.4337020    -0.1804413
H           3.0325859     2.1453166    -0.5145464
C           5.0179549     1.8564118     0.2978448
H           5.2429574     2.9181190     0.3508701
O           1.4726731     0.4453442    -1.4891195
C          -2.1350375    -3.2185520    -1.1406063
H          -3.1089581    -3.6607271    -1.3308259
C          -1.5364872    -3.3601815     0.1107124
H          -2.0481101    -3.9148655     0.8939380
C          -0.2878404    -2.7971008     0.3944197
C           0.3339551    -2.9590769     1.7625376
H          -0.3565045    -3.4654610     2.4429385
H           0.5924599    -1.9917355     2.2121996
H           1.2535780    -3.5627752     1.7368550
C           0.3656094    -2.0776627    -0.6278731
C          -0.2214590    -1.9478254    -1.8928656
H           0.2986674    -1.3920676    -2.6623193
C          -1.4727920    -2.5068666    -2.1408359
H          -1.9237879    -2.3912406    -3.1225551
29
049_C14H13NO_2-0-24-25 (60,) energy =    -671.3168632
N           1.3091377    -0.9977445    -0.0639816
H           1.6771991    -0.7823900    -0.9806419
C           2.2258315    -0.9251608     0.9753198
C           5.8444893     1.2882380     0.2417463
H           6.7675714     1.8358305     0.0714904
C           4.7118253     1.5740808    -0.5223115
H           4.7465855     2.3521578    -1.2799883
C           3.5270182     0.8694806    -0.3070094
H           2.6425235     1.1292695    -0.8827442
C           3.4651936    -0.1272149     0.6778127
C           4.6005791    -0.3921115     1.4556294
H           4.5287517    -1.1484991     2.2302594
C           5.7852811     0.3051957     1.2332805
H           6.6627742     0.0860338     1.8354902
O           2.0434145    -1.4560422     2.0616840
C          -2.1592565    -3.3903452    -0.0594689
H          -3.0579739    -4.0007673    -0.0703950
C          -1.2066764    -3.5357503    -1.0671894
H          -1.3677756    -4.2616232    -1.8609044
C          -0.0325267    -2.7739175    -1.0806713
C           0.9923029    -2.9558875    -2.1760490
H           0.7313615    -3.8058495    -2.8131031
H           1.9945037    -3.1376782    -1.7688457
H           1.0638803    -2.0758714    -2.8323717
C           0.1620405    -1.8394274    -0.0451349
C          -0.7997677    -1.6745501     0.9569971
H          -0.6259823    -0.9419670     1.7367627
C          -1.9505286    -2.4587751     0.9581412
H          -2.6866884    -2.3323404     1.7470848
29
049_C14H13NO_2-0-24-25 (75,) energy =    -671.3150818
N           1.2646514    -0.9283155    -0.0612440
H           1.5653396    -0.6038323    -0.9713636
C           2.2590937    -1.0061489     0.9035696
C           5.8203766     1.3231706     0.2498756
H           6.7299435     1.8979702     0.0972984
C           4.6401116     1.6989692    -0.3938105
H           4.6250952     2.5730857    -1.0391190
C           3.4724899     0.9599487    -0.2009598
H           2.5519423     1.2857250    -0.6779766
C           3.4759603    -0.1621758     0.6402418
C           4.6598934    -0.5196607     1.2994845
H           4.6391891    -1.3756073     1.9660522
C           5.8268048     0.2135848     1.0994239
H           6.7417911    -0.0766654     1.6086205
O           2.1540442    -1.6961157     1.9072764
C          -2.1742111    -3.3684537    -0.0740509
H          -3.0646784    -3.9909638    -0.0878426
C          -1.1645934    -3.5816158    -1.0121975
H          -1.2734718    -4.3713718    -1.7519300
C           0.0010741    -2.8061813    -1.0203803
C           1.0912342    -3.0582865    -2.0350475
H           0.8799121    -3.9610856    -2.6154355
H           2.0680882    -3.1867619    -1.5541439
H           1.1915653    -2.2308473    -2.7522540
C           0.1242639    -1.7897878    -0.0550958
C          -0.8927586    -1.5605775     0.8747098
H          -0.7691262    -0.7602519     1.5969377
C          -2.0357864    -2.3569515     0.8768712
H          -2.8174488    -2.1799910     1.6103164
29
049_C14H13NO_2-0-24-25 (90,) energy =    -671.3138960
N           1.2641026    -0.9011901    -0.0967852
H           1.4503393    -0.3694781    -0.9372179
C           2.3300566    -1.1166046     0.7552772
C           5.7817938     1.4163648     0.2883495
H           6.6647592     2.0405473     0.1797407
C           4.5457335     1.8668155    -0.1782566
H           4.4612337     2.8466037    -0.6404825
C           3.4122365     1.0647532    -0.0414588
H           2.4497852     1.4437609    -0.3749339
C           3.5056160    -0.1961839     0.5647998
C           4.7463097    -0.6312694     1.0495465
H           4.7961690    -1.5985419     1.5387534
C           5.8788053     0.1664142     0.9056473
H           6.8378003    -0.1837391     1.2778040
O           2.3247649    -1.9912096     1.6111616
C          -2.2185480    -3.2840603    -0.1129116
H          -3.1186408    -3.8928787    -0.1255244
C          -1.1494678    -3.6095115    -0.9484055
H          -1.2231753    -4.4736020    -1.6045360
C           0.0281970    -2.8528805    -0.9556098
C           1.1898113    -3.2290861    -1.8432680
H           0.9734636    -4.1459626    -2.3994914
H           2.0980769    -3.3960180    -1.2529965
H           1.4211070    -2.4452195    -2.5766075
C           0.1001155    -1.7395162    -0.0990198
C          -0.9676544    -1.4088568     0.7365415
H          -0.8739352    -0.5423971     1.3840800
C          -2.1275870    -2.1826332     0.7374890
H          -2.9534422    -1.9231537     1.3938286
29
049_C14H13NO_2-0-24-25 (105,) energy =    -671.3151976
N           1.3202332    -1.0135026    -0.3423447
H           1.2514484    -0.0810950    -0.7253903
C           2.4554044    -1.3278783     0.3723566
C           5.6800394     1.5311733     0.4673560
H           6.5078342     2.2345126     0.4979712
C           4.3868871     1.9857564     0.2046920
H           4.2024279     3.0438835     0.0405401
C           3.3239773     1.0832118     0.1616932
H           2.3218127     1.4685045    -0.0104614
C           3.5422430    -0.2842820     0.3822346
C           4.8415894    -0.7271202     0.6658659
H           4.9911193    -1.7841524     0.8587181
C           5.9043168     0.1720235     0.7006294
H           6.9081168    -0.1856638     0.9131047
O           2.6016830    -2.4081248     0.9324322
C          -2.3117732    -3.1492372    -0.1023284
H          -3.2484836    -3.6973609    -0.0471129
C          -1.2319500    -3.6875839    -0.8019651
H          -1.3363661    -4.6543629    -1.2886457
C          -0.0086434    -3.0129706    -0.9038075
C           1.1474446    -3.6127544    -1.6621940
H           0.8295740    -4.4938155    -2.2279073
H           1.9441099    -3.9077663    -0.9705840
H           1.5820355    -2.8908606    -2.3632976
C           0.1011159    -1.7636120    -0.2669000
C          -0.9724912    -1.2268966     0.4493340
H          -0.8474868    -0.2695493     0.9490031
C          -2.1846012    -1.9106497     0.5258206
H          -3.0151331    -1.4841464     1.0812896
29
049_C14H13NO_2-0-24-25 (120,) energy =    -671.3159016
N           1.2880131    -0.9749254    -0.2103445
H           1.1939819    -0.0209796    -0.5283506
C           2.4796535    -1.3347483     0.3780850
C           5.6888476     1.5441028     0.4131084
H           6.5136093     2.2515212     0.4259444
C           4.3763476     2.0032378     0.2927651
H           4.1745873     3.0685547     0.2222652
C           3.3171353     1.0956440     0.2722509
H           2.3027789     1.4829933     0.2128878
C           3.5583031    -0.2820949     0.3740405
C           4.8785789    -0.7308705     0.5164615
H           5.0483415    -1.7973144     0.6199603
C           5.9369482     0.1740824     0.5278140
H           6.9563132    -0.1881012     0.6298024
O           2.6763875    -2.4468723     0.8542085
C          -2.3307788    -3.1435036    -0.1865185
H          -3.2667022    -3.6955537    -0.1858622
C          -1.1967514    -3.6978691    -0.7778454
H          -1.2609736    -4.6782270    -1.2439670
C           0.0304444    -3.0215668    -0.8141522
C           1.2167537    -3.6335676    -1.5131544
H           0.9031844    -4.4654945    -2.1513155
H           1.9504388    -3.9977566    -0.7872003
H           1.7305215    -2.8947651    -2.1393072
C           0.0913717    -1.7557534    -0.1995042
C          -1.0470387    -1.1918814     0.3880412
H          -0.9679161    -0.2137332     0.8564080
C          -2.2596065    -1.8765177     0.3922964
H          -3.1349741    -1.4279431     0.8535466
29
049_C14H13NO_2-0-24-25 (135,) energy =    -671.3150354
N           1.2643608    -0.9702862    -0.0296538
H           1.1567517    -0.0061814    -0.3099709
C           2.5053879    -1.3565067     0.4223544
C           5.6881365     1.5522484     0.3474791
H           6.5069107     2.2664662     0.3302070
C           4.3674297     2.0032721     0.3632375
H           4.1541050     3.0686410     0.3693726
C           3.3154818     1.0872729     0.3812379
H           2.2978158     1.4674841     0.4295193
C           3.5721877    -0.2916149     0.3863753
C           4.9024747    -0.7332624     0.3932744
H           5.0869886    -1.8018032     0.4243650
C           5.9527931     0.1807313     0.3653242
H           6.9791345    -0.1760384     0.3614797
O           2.7502945    -2.4866182     0.8285847
C          -2.3561867    -3.1210703    -0.2918851
H          -3.2949710    -3.6635143    -0.3620333
C          -1.1831825    -3.6938739    -0.7785109
H          -1.2212845    -4.6762032    -1.2433959
C           0.0537141    -3.0343426    -0.7273255
C           1.2588588    -3.6641315    -1.3774711
H           0.9501669    -4.4724129    -2.0478314
H           1.9536847    -4.0601129    -0.6317986
H           1.8182218    -2.9280673    -1.9670242
C           0.0846818    -1.7669289    -0.1082975
C          -1.1001190    -1.1745171     0.3503340
H          -1.0505278    -0.1881376     0.8059729
C          -2.3178012    -1.8416722     0.2620009
H          -3.2234970    -1.3686220     0.6309846
29
049_C14H13NO_2-0-24-25 (150,) energy =    -671.3125533
N           1.2717832    -1.0184865     0.1537948
H           1.1576566    -0.0467575    -0.0973462
C           2.5531777    -1.4094195     0.4711274
C           5.6600186     1.5769027     0.2975628
H           6.4597821     2.3111025     0.2519879
C           4.3394117     1.9923484     0.4746339
H           4.1083048     3.0488452     0.5793029
C           3.3110515     1.0512948     0.5282035
H           2.2962240     1.4002799     0.7040664
C           3.5923379    -0.3177864     0.4091614
C           4.9247134    -0.7254747     0.2564655
H           5.1320023    -1.7885034     0.1945012
C           5.9501557     0.2145814     0.1912884
H           6.9774205    -0.1151037     0.0620211
O           2.8541714    -2.5491605     0.8052977
C          -2.3764370    -3.0692266    -0.4082011
H          -3.3247820    -3.5797240    -0.5505575
C          -1.1876394    -3.6881014    -0.7852084
H          -1.2230715    -4.6733876    -1.2439104
C           0.0677997    -3.0758310    -0.6429594
C           1.2770853    -3.7603922    -1.2293047
H           0.9614378    -4.5749850    -1.8887963
H           1.9388187    -4.1560559    -0.4554811
H           1.8776251    -3.0605836    -1.8224419
C           0.0971167    -1.8048791    -0.0263350
C          -1.1055755    -1.1592252     0.3030413
H          -1.0596382    -0.1660041     0.7447166
C          -2.3359534    -1.7796693     0.1208901
H          -3.2501819    -1.2617528     0.3967943
29
049_C14H13NO_2-0-24-25 (165,) energy =    -671.3090005
N           1.3350024    -1.1028599     0.2282710
H           1.1996246    -0.1132249     0.0768365
C           2.6518947    -1.4691389     0.4069280
C           5.5999925     1.6803395     0.3197842
H           6.3604625     2.4559957     0.2924561
C           4.2850279     2.0023472     0.6585740
H           4.0201520     3.0260613     0.9083517
C           3.3064593     1.0085102     0.6888299
H           2.2988287     1.2810347     0.9940099
C           3.6329322    -0.3213961     0.3841371
C           4.9620405    -0.6380719     0.0709230
H           5.2085685    -1.6746077    -0.1331173
C           5.9362734     0.3561572     0.0284714
H           6.9602470     0.0977813    -0.2272079
O           3.0355978    -2.6144233     0.6063593
C          -2.3955894    -2.9578619    -0.4942935
H          -3.3668464    -3.4111578    -0.6705406
C          -1.2312216    -3.6712152    -0.7619651
H          -1.3091168    -4.6753753    -1.1715531
C           0.0580370    -3.1448309    -0.5738125
C           1.2283926    -3.9656491    -1.0617470
H           0.8603998    -4.8155092    -1.6454371
H           1.8515210    -4.3315093    -0.2442698
H           1.8867380    -3.3754520    -1.7081134
C           0.1441656    -1.8457451    -0.0197779
C          -1.0338082    -1.1059099     0.1927608
H          -0.9490110    -0.0935430     0.5836619
C          -2.2926834    -1.6469301    -0.0323883
H          -3.1799056    -1.0491806     0.1564503
29
049_C14H13NO_2-0-24-25 (180,) energy =    -671.3074973
N           1.4309394    -1.0796936    -0.4093472
H           1.2799810    -0.1030067    -0.1972000
C           2.7732439    -1.4071477    -0.4709677
C           5.5222544     1.6534589     0.8175801
H           6.2316120     2.4144912     1.1314020
C           4.2468365     1.6121837     1.3823381
H           3.9641265     2.3314810     2.1460441
C           3.3341776     0.6373152     0.9771639
H           2.3590578     0.5941235     1.4562659
C           3.6900871    -0.3065042     0.0026320
C           4.9818031    -0.2717584    -0.5411422
H           5.2526794    -1.0245273    -1.2740041
C           5.8887001     0.7068968    -0.1432426
H           6.8835979     0.7312681    -0.5793885
O           3.2300747    -2.4484207    -0.9219220
C          -2.4175670    -2.8393555    -0.4070312
H          -3.4181605    -3.2617384    -0.4085033
C          -1.3037841    -3.6719111    -0.4596349
H          -1.4530535    -4.7483655    -0.4874547
C           0.0211112    -3.2038850    -0.4541547
C           1.1202756    -4.2415001    -0.4152635
H           0.6743721    -5.2395731    -0.3590007
H           1.7674450    -4.1136993     0.4578004
H           1.7743424    -4.1907012    -1.2864963
C           0.2032533    -1.7993055    -0.4322939
C          -0.9263876    -0.9625901    -0.3367689
H          -0.7764558     0.1151728    -0.2923221
C          -2.2213436    -1.4626764    -0.3310668
H          -3.0631100    -0.7789797    -0.2669270
