21
279_C7H10N2O2_13-0-1-2 (-165,) energy =    -532.7111870
C           2.5853108    -0.3911495    -1.6363167
N           1.2621273    -0.5908324    -1.3478375
C           0.3814591    -1.2823549    -2.2701797
H          -0.6049740    -0.8064374    -2.2903360
H           0.2557151    -2.3409463    -2.0027660
H           0.8276926    -1.2232141    -3.2637264
H           1.0003836    -0.5377563    -0.3707930
C           3.2362282     0.1978106     0.8589998
O           2.0128310     0.0339246     1.4464428
C           1.9572761     0.2523744     2.8491435
H           0.9212639     0.0792040     3.1459028
H           2.2422772     1.2821613     3.1002375
H           2.6134152    -0.4457141     3.3849892
C           3.4333744     0.0033638    -0.5070630
N           4.7675668     0.2532060    -0.7461798
H           5.1501983     0.1596512    -1.6772432
C           5.4028604     0.5874312     0.4049108
H           6.4586614     0.8157462     0.4234759
C           4.4763775     0.5665201     1.4403218
H           4.6806940     0.7902454     2.4771359
O           3.0720572    -0.5345313    -2.7637406
21
279_C7H10N2O2_13-0-1-2 (-150,) energy =    -532.7089324
C           2.5630478    -0.2479761    -1.6920009
N           1.2224816    -0.4042286    -1.4231271
C           0.4201031    -1.3098476    -2.2318654
H          -0.6264282    -0.9891814    -2.2311432
H           0.4731884    -2.3459850    -1.8675918
H           0.8000338    -1.2788944    -3.2538274
H           0.9828273    -0.3496659    -0.4388964
C           3.2250242     0.2293709     0.8247272
O           1.9939602     0.1019890     1.4031063
C           1.9436654     0.2642534     2.8138686
H           0.8996692     0.1270763     3.1010783
H           2.2749289     1.2684899     3.1077310
H           2.5649709    -0.4851377     3.3211029
C           3.4192054     0.0762710    -0.5480230
N           4.7647974     0.2770662    -0.7733219
H           5.1490573     0.1919111    -1.7045429
C           5.4090629     0.5361453     0.3914052
H           6.4745457     0.7123936     0.4225650
C           4.4778163     0.5188982     1.4227640
H           4.6875068     0.6935720     2.4678634
O           3.0556956    -0.4096726    -2.8131927
21
279_C7H10N2O2_13-0-1-2 (-135,) energy =    -532.7048748
C           2.5369388    -0.1272415    -1.7628776
N           1.1815385    -0.2626520    -1.5118485
C           0.4607024    -1.3549115    -2.1616203
H          -0.6146728    -1.1551508    -2.1370537
H           0.6536958    -2.3241147    -1.6786855
H           0.7839815    -1.4114248    -3.2020253
H           0.9577746    -0.1626430    -0.5259740
C           3.2057427     0.2350561     0.7713614
O           1.9699596     0.1369019     1.3428674
C           1.9207134     0.2562681     2.7582693
H           0.8709578     0.1513524     3.0377263
H           2.2901838     1.2367549     3.0847876
H           2.5098777    -0.5330440     3.2426286
C           3.3993252     0.1225906    -0.6067079
N           4.7529253     0.2853955    -0.8205646
H           5.1384818     0.2161038    -1.7525738
C           5.4014056     0.4749758     0.3543671
H           6.4729516     0.6073285     0.3957276
C           4.4661695     0.4543756     1.3822917
H           4.6783945     0.5823169     2.4335698
O           3.0316502    -0.2887464    -2.8816752
21
279_C7H10N2O2_13-0-1-2 (-120,) energy =    -532.6994282
C           2.5349141    -0.0297604    -1.8934538
N           1.1656982    -0.1596763    -1.6559763
C           0.5317652    -1.4042509    -2.1021618
H          -0.5559516    -1.2935799    -2.0648870
H           0.8234097    -2.2667643    -1.4845368
H           0.8257009    -1.5963504    -3.1356735
H           0.9470846     0.0220486    -0.6793499
C           3.2065636     0.2264322     0.6524954
O           1.9681368     0.1562782     1.2196178
C           1.9206750     0.2315127     2.6384416
H           0.8673437     0.1543542     2.9132389
H           2.3236033     1.1873349     2.9968918
H           2.4808525    -0.5933884     3.0970381
C           3.4012414     0.1507447    -0.7295088
N           4.7612179     0.2777613    -0.9338374
H           5.1491465     0.2229508    -1.8658377
C           5.4103287     0.4056718     0.2481701
H           6.4858407     0.4975939     0.2971234
C           4.4712556     0.3831103     1.2728572
H           4.6842981     0.4692151     2.3281838
O           3.0285770    -0.1752677    -3.0129542
21
279_C7H10N2O2_13-0-1-2 (-105,) energy =    -532.6934172
C           2.5261779     0.0651094    -1.9561244
N           1.1397725    -0.0631547    -1.7401742
C           0.6026508    -1.4161681    -1.9522150
H          -0.4881369    -1.3838985    -1.8765850
H           0.9885684    -2.1455571    -1.2239942
H           0.8675773    -1.7491640    -2.9582689
H           0.9183825     0.2216999    -0.7876557
C           3.1771097     0.2121498     0.6020462
O           1.9326349     0.1578522     1.1546861
C           1.8726623     0.1972118     2.5748524
H           0.8146891     0.1431527     2.8368385
H           2.2991159     1.1310775     2.9626974
H           2.4038626    -0.6555798     3.0164615
C           3.3854540     0.1795365    -0.7811851
N           4.7518049     0.2776202    -0.9653173
H           5.1505959     0.2443825    -1.8936942
C           5.3892143     0.3454216     0.2272161
H           6.4662055     0.4060667     0.2915438
C           4.4380390     0.3122817     1.2406617
H           4.6414503     0.3557530     2.3004586
O           3.0239444    -0.0467597    -3.0750855
21
279_C7H10N2O2_13-0-1-2 (-90,) energy =    -532.6894611
C           2.4870648     0.0067332    -1.9739817
N           1.0845616     0.0168093    -1.7380853
C           0.4689849    -1.3132729    -1.5614436
H           0.6766474    -1.9977513    -2.3970500
H          -0.6134262    -1.1858239    -1.4684449
H           0.8334775    -1.7619207    -0.6332420
H           0.7008213     0.4046374    -2.6019327
C           3.1670442     0.0582902     0.5798012
O           1.9532933    -0.0803395     1.1650396
C           1.9306163    -0.0043714     2.5833354
H           0.8838798    -0.1056304     2.8751484
H           2.3170707     0.9605046     2.9364592
H           2.5163423    -0.8153607     3.0365301
C           3.3497765     0.0718042    -0.8101255
N           4.7151557     0.1784459    -1.0184446
H           5.0907947     0.2474213    -1.9541000
C           5.3707011     0.2621608     0.1618353
H           6.4446236     0.3747956     0.2069342
C           4.4404612     0.1842722     1.1916139
H           4.6644414     0.2126453     2.2476737
O           2.9558812     0.1206890    -3.1086228
21
279_C7H10N2O2_13-0-1-2 (-75,) energy =    -532.6944817
C           2.4944061     0.0739318    -2.0166303
N           1.1002245     0.0135163    -1.8402503
C           0.5067089    -1.2762276    -1.4478439
H           0.7283926    -2.0822402    -2.1624522
H          -0.5782423    -1.1524789    -1.3833527
H           0.8694462    -1.5613629    -0.4584588
H           0.7138102     0.2893246    -2.7429664
C           3.1472806     0.0376164     0.5588189
O           1.9271586    -0.0936461     1.1387521
C           1.8997805    -0.0364412     2.5579668
H           0.8506144    -0.1267641     2.8447322
H           2.2986043     0.9182338     2.9243751
H           2.4723942    -0.8613511     3.0024948
C           3.3367209     0.0813621    -0.8285055
N           4.7027006     0.1925359    -1.0253278
H           5.0789018     0.2959501    -1.9578460
C           5.3536915     0.2414392     0.1595319
H           6.4280164     0.3460409     0.2117420
C           4.4177790     0.1405878     1.1814132
H           4.6347799     0.1418855     2.2393371
O           2.9928670     0.2854996    -3.1262957
21
279_C7H10N2O2_13-0-1-2 (-60,) energy =    -532.6980020
C           2.4948078     0.1316159    -2.0471476
N           1.1156575    -0.0313703    -1.9448101
C           0.5320756    -1.2596034    -1.3912897
H           0.7868507    -2.1517264    -1.9818881
H          -0.5562123    -1.1490370    -1.3790554
H           0.8653422    -1.3993591    -0.3629134
H           0.7338554     0.1692877    -2.8666005
C           3.1298898     0.0210366     0.5484716
O           1.9092254    -0.0899856     1.1365240
C           1.8919801    -0.0498671     2.5564794
H           0.8429774    -0.1223479     2.8490025
H           2.3125105     0.8921154     2.9311106
H           2.4505110    -0.8914058     2.9873203
C           3.3174401     0.0820667    -0.8385540
N           4.6836880     0.1964243    -1.0317214
H           5.0549147     0.3276098    -1.9630475
C           5.3373662     0.2165746     0.1520550
H           6.4126886     0.3098215     0.2040877
C           4.4017082     0.1020557     1.1718572
H           4.6181692     0.0832352     2.2297172
O           3.0197882     0.4402050    -3.1234300
21
279_C7H10N2O2_13-0-1-2 (-45,) energy =    -532.6997354
C           2.4923225     0.1800475    -2.0687138
N           1.1377360    -0.0898787    -2.0431535
C           0.5354275    -1.2333313    -1.3578722
H           0.8156317    -2.1928867    -1.8169938
H          -0.5527006    -1.1307084    -1.4075069
H           0.8246361    -1.2381406    -0.3081049
H           0.7727014     0.0566577    -2.9795674
C           3.1196828     0.0136856     0.5418979
O           1.9020527    -0.0819499     1.1431360
C           1.9006401    -0.0665847     2.5636301
H           0.8535817    -0.1249631     2.8662475
H           2.3422395     0.8610398     2.9495122
H           2.4481746    -0.9254046     2.9738338
C           3.3003046     0.0896303    -0.8456737
N           4.6663028     0.2089651    -1.0397906
H           5.0293081     0.3650744    -1.9707091
C           5.3266685     0.2069805     0.1400557
H           6.4028293     0.2918420     0.1885294
C           4.3948147     0.0792936     1.1608101
H           4.6145872     0.0434488     2.2175011
O           3.0336157     0.5691623    -3.1121976
21
279_C7H10N2O2_13-0-1-2 (-30,) energy =    -532.6999730
C           2.5064230     0.2209560    -2.1228494
N           1.1838098    -0.1443232    -2.1675389
C           0.5198481    -1.1754815    -1.3801302
H           0.7672523    -2.1894416    -1.7282037
H          -0.5621605    -1.0364616    -1.4672414
H           0.7886462    -1.0831782    -0.3297436
H           0.8339412    -0.0227977    -3.1113247
C           3.1330701     0.0096755     0.4984986
O           1.9204415    -0.0882580     1.1128102
C           1.9343057    -0.1010647     2.5330781
H           0.8901058    -0.1574419     2.8459339
H           2.3871254     0.8154283     2.9322400
H           2.4795016    -0.9719019     2.9203276
C           3.3047046     0.1050506    -0.8893625
N           4.6691818     0.2395354    -1.0865509
H           5.0226767     0.4232911    -2.0163262
C           5.3367520     0.2207786     0.0887294
H           6.4129731     0.3075127     0.1314537
C           4.4114055     0.0704876     1.1116142
H           4.6362850     0.0175478     2.1664916
O           3.0571843     0.6713274    -3.1380713
21
279_C7H10N2O2_13-0-1-2 (-15,) energy =    -532.6995132
C           2.9229780    -0.8009113    -2.1161347
N           1.6409653    -1.2709225    -2.1733316
C           0.7570695    -1.6898083    -1.0971882
H           0.1714342    -2.5471075    -1.4442731
H           0.0706885    -0.8968388    -0.7825207
H           1.3373815    -1.9998700    -0.2264089
H           1.3860074    -1.5264339    -3.1182669
C           3.1184609     0.1534234     0.4010213
O           1.8204121     0.2485453     0.8029849
C           1.6015702     0.8503479     2.0694640
H           0.5199203     0.8633191     2.2170448
H           1.9859781     1.8784534     2.0941429
H           2.0717181     0.2712691     2.8755907
C           3.5166392    -0.3406118    -0.8484155
N           4.8955020    -0.2160948    -0.8784648
H           5.3974427    -0.4203346    -1.7325228
C           5.3616819     0.3104905     0.2763735
H           6.4172191     0.4747177     0.4392031
C           4.2806989     0.5519052     1.1122427
H           4.3304964     0.9673697     2.1078086
O           3.6217490    -0.7787085    -3.1403587
21
279_C7H10N2O2_13-0-1-2 (0,) energy =    -532.6989604
C           2.9607145    -0.8822506    -2.0798811
N           1.7073506    -1.4194933    -2.1502374
C           0.6898679    -1.6041181    -1.1301765
H           0.0409856    -2.4274059    -1.4441552
H           0.0746513    -0.7103179    -0.9742735
H           1.1468173    -1.8699449    -0.1766853
H           1.4770228    -1.6833496    -3.0991528
C           3.1299365     0.1375607     0.4286547
O           1.8388332     0.1767461     0.8634963
C           1.6238170     0.7807961     2.1295249
H           0.5468776     0.7431217     2.3049412
H           1.9584695     1.8264469     2.1346375
H           2.1418512     0.2335057     2.9283474
C           3.5277626    -0.3532944    -0.8236011
N           4.8991698    -0.1639399    -0.8770878
H           5.3932381    -0.3705697    -1.7355651
C           5.3610647     0.3980821     0.2612341
H           6.4103963     0.6136714     0.4029509
C           4.2843129     0.6000303     1.1127331
H           4.3311362     1.0309869     2.1017778
O           3.6819907    -0.8860055    -3.0899840
21
279_C7H10N2O2_13-0-1-2 (15,) energy =    -532.6992618
C           3.0786913    -1.3962265    -1.8861657
N           1.7611059    -1.7125395    -2.0665691
C           0.5567079    -1.0893180    -1.5448774
H          -0.2143144    -1.8550537    -1.4066231
H           0.1634094    -0.3249013    -2.2310629
H           0.7538701    -0.6298160    -0.5793110
H           1.6517975    -2.3121014    -2.8753858
C           3.1620937     0.0243526     0.4282808
O           1.9609318    -0.2258167     1.0243916
C           1.7641574     0.3465995     2.3090581
H           0.7667660     0.0389399     2.6285243
H           1.8142017     1.4426842     2.2707103
H           2.5082483    -0.0242547     3.0254931
C           3.5473637    -0.4862336    -0.8195757
N           4.8451070    -0.0414722    -1.0140811
H           5.3647461    -0.3713534    -1.8171417
C           5.2663209     0.7148434     0.0233092
H           6.2526531     1.1557606     0.0412142
C           4.2374693     0.7886919     0.9507608
H           4.2663004     1.3241185     1.8880847
O           3.9264308    -1.8586767    -2.6656535
21
279_C7H10N2O2_13-0-1-2 (30,) energy =    -532.6999730
C           2.9249507    -1.3470589    -1.8025442
N           1.6009050    -1.7069672    -1.8483722
C           0.4500561    -0.9147439    -1.4335533
H          -0.4180967    -1.5766479    -1.3570611
H           0.2134240    -0.1158253    -2.1520331
H           0.6256960    -0.4737049    -0.4544112
H           1.4467123    -2.3181694    -2.6424531
C           3.1129022     0.0843591     0.4831725
O           1.9483986    -0.1938810     1.1342881
C           1.8150686     0.3444082     2.4419520
H           0.8469168     0.0031859     2.8129774
H           1.8346245     1.4421111     2.4269903
H           2.6104573    -0.0221076     3.1032826
C           3.4444017    -0.4188270    -0.7823804
N           4.7179354     0.0562799    -1.0491257
H           5.2054808    -0.2618972    -1.8763316
C           5.1757347     0.8230128    -0.0343225
H           6.1515039     1.2859496    -0.0684343
C           4.1965223     0.8743391     0.9473370
H           4.2637500     1.4117078     1.8816038
O           3.7207870    -1.8144237    -2.6302290
21
279_C7H10N2O2_13-0-1-2 (45,) energy =    -532.6997354
C           2.8877193    -1.3013567    -1.7661045
N           1.5746575    -1.7268021    -1.7088041
C           0.4337010    -0.8530092    -1.4357222
H          -0.4609212    -1.4750894    -1.3373087
H           0.2626472    -0.1224884    -2.2401684
H           0.5806124    -0.3250035    -0.4948166
H           1.4185179    -2.3625120    -2.4853913
C           3.0988965     0.0906787     0.5260982
O           1.9324174    -0.1965863     1.1664589
C           1.7992670     0.3120131     2.4861707
H           0.8286647    -0.0327365     2.8472739
H           1.8243844     1.4096892     2.4966195
H           2.5915142    -0.0736346     3.1404051
C           3.4288791    -0.3926111    -0.7472005
N           4.6961677     0.0964265    -1.0168211
H           5.1788522    -0.1955822    -1.8561653
C           5.1552870     0.8480177     0.0090660
H           6.1295418     1.3145281    -0.0204130
C           4.1814580     0.8774282     0.9976950
H           4.2522599     1.3993920     1.9404153
O           3.6486812    -1.7348258    -2.6414952
21
279_C7H10N2O2_13-0-1-2 (60,) energy =    -532.6980020
C           2.8645356    -1.2536533    -1.7641807
N           1.5738367    -1.7479129    -1.5941921
C           0.4214523    -0.8459496    -1.4759494
H          -0.4755651    -1.4517211    -1.3173762
H           0.2734727    -0.2296353    -2.3747589
H           0.5441294    -0.1971239    -0.6086946
H           1.4276098    -2.4294251    -2.3357393
C           3.1106778     0.0921306     0.5338775
O           1.9354640    -0.1891709     1.1566895
C           1.8004381     0.2919102     2.4865424
H           0.8223652    -0.0462418     2.8333219
H           1.8414089     1.3886679     2.5213464
H           2.5823080    -0.1194165     3.1377065
C           3.4394928    -0.3757495    -0.7450697
N           4.7045175     0.1177230    -1.0156630
H           5.1824523    -0.1506292    -1.8653406
C           5.1680394     0.8499110     0.0226412
H           6.1452366     1.3106442    -0.0003846
C           4.1973040     0.8666531     1.0155954
H           4.2732704     1.3738914     1.9659716
O           3.5758554    -1.6428223    -2.6978754
21
279_C7H10N2O2_13-0-1-2 (75,) energy =    -532.6944817
C           2.8335157    -1.1966746    -1.7570927
N           1.5716632    -1.7526996    -1.4794827
C           0.3969027    -0.8656395    -1.5318769
H          -0.4960041    -1.4611302    -1.3204523
H           0.2735440    -0.3793507    -2.5105345
H           0.4793481    -0.1011397    -0.7569535
H           1.4556010    -2.4893068    -2.1753434
C           3.1327817     0.0910623     0.5478320
O           1.9491260    -0.1768302     1.1556501
C           1.8135352     0.2855026     2.4920842
H           0.8273236    -0.0406238     2.8270031
H           1.8734206     1.3807917     2.5442727
H           2.5833755    -0.1493716     3.1424305
C           3.4549795    -0.3622470    -0.7379245
N           4.7186014     0.1322922    -1.0130426
H           5.1876646    -0.1119824    -1.8745075
C           5.1934718     0.8406748     0.0370839
H           6.1752304     1.2919463     0.0184887
C           4.2288693     0.8471669     1.0370064
H           4.3149549     1.3386557     1.9947759
O           3.4784372    -1.5335093    -2.7546898
21
279_C7H10N2O2_13-0-1-2 (90,) energy =    -532.6894611
C           2.7906902    -1.1309923    -1.7415957
N           1.5495668    -1.7253290    -1.3822348
C           0.3573763    -0.8959235    -1.6468555
H          -0.5343365    -1.4826760    -1.4079510
H           0.2919678    -0.5576335    -2.6914385
H           0.3689022    -0.0227455    -0.9887331
H           1.4857684    -2.5356494    -2.0012745
C           3.1578747     0.0917733     0.5728917
O           1.9757197    -0.1652433     1.1822892
C           1.8533229     0.2840559     2.5243017
H           0.8634882    -0.0303364     2.8596377
H           1.9304704     1.3777249     2.5883326
H           2.6185761    -0.1697597     3.1673163
C           3.4599745    -0.3416203    -0.7257132
N           4.7220257     0.1520212    -1.0130712
H           5.1743824    -0.0662312    -1.8900275
C           5.2180184     0.8331689     0.0451526
H           6.2039772     1.2752358     0.0229694
C           4.2686042     0.8269836     1.0602540
H           4.3739478     1.2995617     2.0255554
O           3.3653795    -1.4134384    -2.7952282
21
279_C7H10N2O2_13-0-1-2 (105,) energy =    -532.6934172
C           2.8510093    -1.1521360    -1.7076106
N           1.5595172    -1.6358501    -1.4190366
C           0.4628128    -0.8932282    -2.0592386
H           0.3779387     0.1405160    -1.6912498
H          -0.4801556    -1.4145407    -1.8704983
H           0.6326424    -0.8701087    -3.1380529
H           1.4097921    -1.6193764    -0.4116845
C           3.2383192    -0.0178243     0.6488485
O           2.0730556    -0.3687705     1.2620975
C           1.9004308     0.0924715     2.5960671
H           0.9263823    -0.2758875     2.9222690
H           1.9111110     1.1890365     2.6393941
H           2.6822994    -0.3046979     3.2558623
C           3.5399203    -0.3996888    -0.6630267
N           4.7963291     0.1101307    -0.9312822
H           5.2190889    -0.0128733    -1.8413191
C           5.2677038     0.7997400     0.1342080
H           6.2295057     1.2917730     0.1103975
C           4.3231421     0.7418326     1.1527145
H           4.4174592     1.1938666     2.1290369
O           3.3410183    -1.2349553    -2.8325071
21
279_C7H10N2O2_13-0-1-2 (120,) energy =    -532.6994282
C           2.8069681    -1.0493429    -1.6853222
N           1.5275577    -1.5155858    -1.3791319
C           0.4214348    -0.9917869    -2.1866254
H           0.2013360     0.0622077    -1.9605754
H          -0.4774828    -1.5881784    -2.0048844
H           0.6868587    -1.0771131    -3.2419530
H           1.3284021    -1.4067416    -0.3876153
C           3.2659027     0.0034502     0.6978707
O           2.0968833    -0.3266425     1.3180993
C           1.9525092     0.1115182     2.6627721
H           0.9701684    -0.2315043     2.9918863
H           2.0001704     1.2059979     2.7292140
H           2.7272822    -0.3252286     3.3057443
C           3.5348060    -0.3502002    -0.6273410
N           4.8015194     0.1260909    -0.9030284
H           5.2048168     0.0137346    -1.8232701
C           5.3129635     0.7695550     0.1736457
H           6.2899893     1.2303113     0.1472425
C           4.3829239     0.7131539     1.2052447
H           4.5065281     1.1341973     2.1921392
O           3.2773177    -1.1075302    -2.8226622
21
279_C7H10N2O2_13-0-1-2 (135,) energy =    -532.7048748
C           2.7491584    -0.9227534    -1.6005224
N           1.4778290    -1.3730103    -1.2851631
C           0.3889719    -1.0870239    -2.2165289
H           0.0448624    -0.0447983    -2.1445475
H          -0.4551874    -1.7531649    -2.0150585
H           0.7457133    -1.2688256    -3.2313337
H           1.2340739    -1.1981246    -0.3145870
C           3.2576715     0.0398261     0.8110695
O           2.0770907    -0.2650705     1.4248117
C           1.9526766     0.1357987     2.7826999
H           0.9596818    -0.1816845     3.1055860
H           2.0401569     1.2252835     2.8832048
H           2.7132473    -0.3483807     3.4084622
C           3.5075896    -0.2836021    -0.5238945
N           4.7868508     0.1576073    -0.7946302
H           5.1811326     0.0556519    -1.7199639
C           5.3280258     0.7490338     0.2981991
H           6.3217367     1.1728791     0.2800054
C           4.4019521     0.6941040     1.3331334
H           4.5453117     1.0799326     2.3317208
O           3.2126715    -0.9674300    -2.7431900
21
279_C7H10N2O2_13-0-1-2 (150,) energy =    -532.7089324
C           2.7070451    -0.7879915    -1.5818569
N           1.4368929    -1.2079574    -1.2591004
C           0.3820852    -1.1681983    -2.2610024
H          -0.1045195    -0.1833405    -2.3096260
H          -0.3765576    -1.9256277    -2.0400530
H           0.8283960    -1.3857184    -3.2321890
H           1.1576364    -1.0050772    -0.3051737
C           3.2665298     0.0731839     0.8564547
O           2.0753731    -0.2036565     1.4653635
C           1.9710646     0.1608552     2.8348015
H           0.9668466    -0.1252989     3.1524436
H           2.1034839     1.2423499     2.9679469
H           2.7129095    -0.3725596     3.4428441
C           3.4969353    -0.2155886    -0.4885770
N           4.7885632     0.1873059    -0.7551649
H           5.1740203     0.0976639    -1.6854698
C           5.3604221     0.7175508     0.3541615
H           6.3709026     1.0997773     0.3432365
C           4.4391114     0.6630978     1.3931228
H           4.6032986     1.0081825     2.4034060
O           3.1689185    -0.8344157    -2.7265999
21
279_C7H10N2O2_13-0-1-2 (165,) energy =    -532.7111871
C           2.6523135    -0.6427824    -1.5851244
N           1.3745732    -1.0126382    -1.2618751
C           0.3653484    -1.2226880    -2.2825824
H          -0.2782855    -0.3412007    -2.4116405
H          -0.2645077    -2.0825092    -2.0297242
H           0.8801735    -1.4206259    -3.2236100
H           1.0760599    -0.8218455    -0.3129649
C           3.2577636     0.1163002     0.8754420
O           2.0548764    -0.1244026     1.4785788
C           1.9737743     0.1897444     2.8617314
H           0.9583484    -0.0604990     3.1742432
H           2.1582928     1.2575791     3.0368301
H           2.6918158    -0.4019106     3.4440499
C           3.4703143    -0.1357395    -0.4788490
N           4.7768728     0.2175974    -0.7390907
H           5.1569266     0.1337540    -1.6721323
C           5.3782784     0.6786899     0.3860834
H           6.4065391     1.0101455     0.3836055
C           4.4589213     0.6310016     1.4269442
H           4.6427299     0.9314602     2.4480810
O           3.1184159    -0.7088384    -2.7283437
21
279_C7H10N2O2_13-0-1-2 (180,) energy =    -532.7118175
C           2.6023512    -0.5218702    -1.6125619
N           1.3038115    -0.8050223    -1.2996559
C           0.3482979    -1.2616263    -2.2877558
H          -0.4970576    -0.5675648    -2.3767964
H          -0.0415274    -2.2564824    -2.0375542
H           0.8672258    -1.3141216    -3.2458749
H           1.0165904    -0.6856931    -0.3366420
C           3.2416798     0.1532535     0.8639373
O           2.0293192    -0.0493784     1.4630880
C           1.9664701     0.2224255     2.8559981
H           0.9404305     0.0128099     3.1638093
H           2.2037695     1.2735368     3.0651517
H           2.6555437    -0.4225200     3.4164929
C           3.4409826    -0.0705045    -0.4969233
N           4.7612078     0.2313576    -0.7511087
H           5.1395460     0.1411806    -1.6842457
C           5.3856837     0.6297468     0.3856685
H           6.4290187     0.9100506     0.3903240
C           4.4663273     0.5953256     1.4269740
H           4.6650778     0.8578594     2.4557564
O           3.0771360    -0.6263591    -2.7499248
