26
427_C12H11NO2_0-9-10-11 (-165,) energy =    -669.0996446
C           2.4935731    -1.4894422    -0.4574363
C           1.2200197    -1.0744405    -0.0357385
H           1.1232414    -0.1012212     0.4340777
C           0.0929477    -1.8792232    -0.1803263
H          -0.8749788    -1.5238847     0.1595407
C           0.2250056    -3.1436676    -0.7494830
H          -0.6415804    -3.7882657    -0.8668039
C           1.4771174    -3.5989188    -1.1623407
H           1.5706697    -4.5878695    -1.5954407
C           2.6077527    -2.7895468    -1.0130754
O           3.8590212    -3.1920132    -1.3939008
C           3.9954643    -4.3295039    -2.2385131
H           5.0486686    -4.3614273    -2.5212950
H           3.3738185    -4.2287734    -3.1359835
H           3.7344433    -5.2565753    -1.7131513
C           5.8806356     1.0987514     0.0786211
H           6.7594143     1.7163292     0.2256548
C           6.0760748    -0.3363765     0.1390442
N           4.8855643    -1.0689740    -0.0514755
H           5.0145407    -2.0736264    -0.0729045
C           3.6388729    -0.5591206    -0.3059962
C           3.5039368     0.8103391    -0.3751971
H           2.5438657     1.2520046    -0.6081925
C           4.6470657     1.6305855    -0.1742324
H           4.5289294     2.7103365    -0.2324490
O           7.1337128    -0.9325823     0.3296978
26
427_C12H11NO2_0-9-10-11 (-150,) energy =    -669.0985761
C           2.4922460    -1.5155955    -0.4342390
C           1.2104805    -1.0764388    -0.0600662
H           1.1078698    -0.0842055     0.3666488
C           0.0824066    -1.8789851    -0.2023920
H          -0.8911491    -1.5034311     0.0975143
C           0.2175173    -3.1669583    -0.7181483
H          -0.6513157    -3.8090396    -0.8324519
C           1.4766220    -3.6454971    -1.0763290
H           1.5810649    -4.6530820    -1.4632753
C           2.6093044    -2.8391735    -0.9268092
O           3.8641309    -3.2833349    -1.2521681
C           4.0034972    -4.2522492    -2.2886036
H           5.0609934    -4.2493697    -2.5582783
H           3.3958989    -3.9818778    -3.1597010
H           3.7253863    -5.2559250    -1.9442498
C           5.8863322     1.0735809     0.0518321
H           6.7665649     1.6917905     0.1871187
C           6.0745168    -0.3598474     0.1587707
N           4.8820894    -1.0932354    -0.0172108
H           5.0063327    -2.0988889    -0.0056047
C           3.6399641    -0.5860563    -0.2981316
C           3.5123694     0.7812462    -0.4127743
H           2.5567169     1.2197055    -0.6685745
C           4.6574368     1.6025015    -0.2282601
H           4.5446394     2.6803486    -0.3216334
O           7.1282854    -0.9539208     0.3755044
26
427_C12H11NO2_0-9-10-11 (-135,) energy =    -669.0972486
C           2.5047058    -1.5629751    -0.4130801
C           1.2188472    -1.0994114    -0.0783370
H           1.1150180    -0.0912984     0.3088918
C           0.0881285    -1.8983962    -0.2110180
H          -0.8875506    -1.5041351     0.0566351
C           0.2196564    -3.2082152    -0.6732821
H          -0.6530450    -3.8468869    -0.7762322
C           1.4812107    -3.7087996    -0.9855174
H           1.5927406    -4.7336742    -1.3237969
C           2.6168313    -2.9050849    -0.8481722
O           3.8711941    -3.3980549    -1.1188264
C           4.0515464    -4.1589365    -2.3143963
H           5.1298036    -4.2133782    -2.4752892
H           3.5728129    -3.6635156    -3.1664970
H           3.6552491    -5.1762093    -2.2118824
C           5.9139883     1.0179497     0.0067312
H           6.7983554     1.6336546     0.1254022
C           6.0942937    -0.4136431     0.1480896
N           4.8971802    -1.1440722    -0.0062146
H           5.0132912    -2.1505550     0.0271794
C           3.6575563    -0.6364555    -0.2972625
C           3.5376748     0.7283689    -0.4463528
H           2.5849452     1.1674281    -0.7115586
C           4.6878729     1.5471998    -0.2842641
H           4.5811111     2.6230503    -0.4039971
O           7.1457533    -1.0079041     0.3749504
26
427_C12H11NO2_0-9-10-11 (-120,) energy =    -669.0966667
C           2.4798370    -1.5841371    -0.4019835
C           1.1899626    -1.1020337    -0.1051694
H           1.0833157    -0.0805933     0.2441829
C           0.0591566    -1.9021348    -0.2213633
H          -0.9179207    -1.4932289     0.0181357
C           0.1894320    -3.2329406    -0.6233662
H          -0.6846556    -3.8728229    -0.7039251
C           1.4532909    -3.7483776    -0.8952561
H           1.5759382    -4.7901743    -1.1747929
C           2.5882554    -2.9403390    -0.7855774
O           3.8390657    -3.4838516    -0.9997235
C           4.1017233    -4.0024929    -2.3070727
H           5.1370227    -4.3473427    -2.2920300
H           3.9831618    -3.2208527    -3.0669589
H           3.4432425    -4.8451900    -2.5467017
C           5.9054032     0.9851037    -0.0384849
H           6.7939475     1.5974064     0.0658261
C           6.0781690    -0.4457629     0.1208060
N           4.8757516    -1.1708332    -0.0148628
H           4.9816532    -2.1783818     0.0341382
C           3.6367427    -0.6597708    -0.3030268
C           3.5239954     0.7035102    -0.4702767
H           2.5728859     1.1456057    -0.7357838
C           4.6803694     1.5174930    -0.3277268
H           4.5787790     2.5922293    -0.4610249
O           7.1280740    -1.0426088     0.3475858
26
427_C12H11NO2_0-9-10-11 (-105,) energy =    -669.0967704
C           2.4613961    -1.6165633    -0.3923277
C           1.1731249    -1.1148393    -0.1222836
H           1.0699987    -0.0808740     0.1894972
C           0.0387575    -1.9137547    -0.2133913
H          -0.9367380    -1.4901761     0.0065915
C           0.1610004    -3.2603471    -0.5628646
H          -0.7169499    -3.8971761    -0.6223316
C           1.4235919    -3.7913556    -0.8105773
H           1.5515740    -4.8420096    -1.0536458
C           2.5609312    -2.9854702    -0.7261449
O           3.8004458    -3.5691276    -0.9224313
C           4.1477444    -3.8296044    -2.2877374
H           5.1219342    -4.3212174    -2.2663773
H           4.2181065    -2.8960797    -2.8594341
H           3.4119162    -4.4904654    -2.7611213
C           5.9179275     0.9161467    -0.0861645
H           6.8147723     1.5184193     0.0046842
C           6.0696545    -0.5118542     0.1176650
N           4.8576978    -1.2236831    -0.0036842
H           4.9444412    -2.2312110     0.0825149
C           3.6277106    -0.7025280    -0.3132389
C           3.5347137     0.6561182    -0.5215150
H           2.5910654     1.1035930    -0.8042922
C           4.7023404     1.4574762    -0.3972044
H           4.6170946     2.5291426    -0.5626101
O           7.1098021    -1.1153465     0.3690267
26
427_C12H11NO2_0-9-10-11 (-90,) energy =    -669.0967885
C           2.4421084    -1.6431663    -0.3952393
C           1.1603718    -1.1227485    -0.1347272
H           1.0673387    -0.0781437     0.1437602
C           0.0207342    -1.9190083    -0.1879856
H          -0.9506585    -1.4827938     0.0255255
C           0.1329760    -3.2774822    -0.4901248
H          -0.7493135    -3.9103591    -0.5206505
C           1.3903919    -3.8232227    -0.7372899
H           1.5147870    -4.8791061    -0.9578746
C           2.5315712    -3.0217256    -0.6897747
O           3.7584766    -3.6289007    -0.9009838
C           4.2029883    -3.6260322    -2.2641823
H           5.1632664    -4.1448009    -2.2735120
H           4.3347499    -2.6031069    -2.6369277
H           3.4881481    -4.1573547    -2.9043742
C           5.9306895     0.8434989    -0.1094043
H           6.8355796     1.4338051    -0.0198064
C           6.0508214    -0.5759425     0.1659394
N           4.8298703    -1.2723465     0.0404103
H           4.8943881    -2.2756541     0.1814352
C           3.6195869    -0.7436520    -0.3301427
C           3.5566603     0.6044365    -0.6030295
H           2.6280199     1.0523723    -0.9318319
C           4.7351399     1.3909595    -0.4810536
H           4.6749601     2.4551095    -0.6978206
O           7.0717493    -1.1833521     0.4776873
26
427_C12H11NO2_0-9-10-11 (-75,) energy =    -669.0961779
C           2.4197546    -1.6706377    -0.4315848
C           1.1477965    -1.1402628    -0.1497039
H           1.0663562    -0.0877565     0.1026511
C           0.0072953    -1.9380908    -0.1425319
H          -0.9576751    -1.4961280     0.0874919
C           0.1139659    -3.3051837    -0.4033716
H          -0.7679470    -3.9391747    -0.3868581
C           1.3620539    -3.8572780    -0.6846433
H           1.4801369    -4.9157268    -0.8949654
C           2.5035330    -3.0553124    -0.6998597
O           3.7106281    -3.6750402    -0.9711739
C           4.2447116    -3.4276518    -2.2793352
H           5.1954281    -3.9619283    -2.3241290
H           4.4181180    -2.3600940    -2.4525713
H           3.5650029    -3.8159279    -3.0479665
C           5.9250623     0.7861031    -0.1397492
H           6.8339899     1.3688591    -0.0420475
C           6.0122165    -0.6168380     0.2217185
N           4.7876581    -1.3047359     0.0788718
H           4.8328843    -2.2979622     0.2837715
C           3.6039463    -0.7809614    -0.3767995
C           3.5721573     0.5492572    -0.7263551
H           2.6622527     0.9865887    -1.1170202
C           4.7560952     1.3273833    -0.5950791
H           4.7222141     2.3783589    -0.8730279
O           7.0083090    -1.2166239     0.6158624
26
427_C12H11NO2_0-9-10-11 (-60,) energy =    -669.0943031
C           2.4074154    -1.7000213    -0.4799138
C           1.1485953    -1.1644383    -0.1520432
H           1.0831767    -0.1075272     0.0874646
C           0.0097288    -1.9606618    -0.0787578
H          -0.9450080    -1.5157141     0.1852739
C           0.1105220    -3.3328877    -0.3152512
H          -0.7673535    -3.9691811    -0.2468941
C           1.3424357    -3.8867702    -0.6544473
H           1.4473041    -4.9454455    -0.8697121
C           2.4843102    -3.0867545    -0.7422028
O           3.6511123    -3.7268440    -1.1063227
C           4.2892150    -3.2870429    -2.3123887
H           5.1875318    -3.8990057    -2.4115964
H           4.5735511    -2.2323036    -2.2779128
H           3.6301497    -3.4591588    -3.1726487
C           5.9194913     0.7365270    -0.1440102
H           6.8292293     1.3145513    -0.0278262
C           5.9700805    -0.6451974     0.2981813
N           4.7451467    -1.3275326     0.1260923
H           4.7661715    -2.3034470     0.4037470
C           3.5948044    -0.8162985    -0.4222890
C           3.5974185     0.4924836    -0.8421659
H           2.7127841     0.9154745    -1.3014823
C           4.7832059     1.2649492    -0.6882453
H           4.7779464     2.3001763    -1.0216532
O           6.9346439    -1.2318152     0.7795704
26
427_C12H11NO2_0-9-10-11 (-45,) energy =    -669.0921402
C           2.3986983    -1.7494484    -0.4959888
C           1.1618828    -1.2042507    -0.1024228
H           1.1240947    -0.1486432     0.1496571
C           0.0199133    -1.9882951     0.0174340
H          -0.9167765    -1.5389937     0.3332337
C           0.0987802    -3.3588214    -0.2426250
H          -0.7803295    -3.9891246    -0.1411212
C           1.3027964    -3.9182152    -0.6568453
H           1.3818730    -4.9723918    -0.9026622
C           2.4508569    -3.1290643    -0.7981567
O           3.5621731    -3.7920434    -1.2557200
C           4.3532465    -3.2068647    -2.2974096
H           4.8084997    -4.0457123    -2.8292271
H           5.1423199    -2.5636156    -1.9002885
H           3.7257620    -2.6344103    -2.9895379
C           5.9211169     0.6711947    -0.1664400
H           6.8303314     1.2485624    -0.0431318
C           5.9188191    -0.6612305     0.4093015
N           4.6974479    -1.3463107     0.2115757
H           4.6727585    -2.2777234     0.6134512
C           3.5935189    -0.8738261    -0.4546022
C           3.6423344     0.3912273    -0.9859689
H           2.7913714     0.7789972    -1.5322791
C           4.8297170     1.1609890    -0.8268282
H           4.8636153     2.1619280    -1.2509499
O           6.8337619    -1.2072438     1.0179880
26
427_C12H11NO2_0-9-10-11 (-30,) energy =    -669.0905768
C           2.3870581    -1.7801443    -0.5195213
C           1.1740098    -1.2394152    -0.0481067
H           1.1616315    -0.1912476     0.2360454
C           0.0309078    -2.0139759     0.1030396
H          -0.8845899    -1.5669788     0.4783268
C           0.0849413    -3.3759663    -0.2078550
H          -0.7939590    -4.0029255    -0.0854704
C           1.2591089    -3.9297781    -0.7006212
H           1.3137315    -4.9744213    -0.9899523
C           2.4118792    -3.1484144    -0.8757705
O           3.4614502    -3.8245437    -1.4336119
C           4.4064569    -3.1691297    -2.2824220
H           4.7707220    -3.9406669    -2.9650357
H           5.2491497    -2.7632725    -1.7171241
H           3.9323773    -2.3677499    -2.8588298
C           5.8966549     0.6642349    -0.2000065
H           6.7996531     1.2506402    -0.0737341
C           5.8743698    -0.6346087     0.4464642
N           4.6597933    -1.3317958     0.2417508
H           4.6099025    -2.2266282     0.7174376
C           3.5813766    -0.8995344    -0.4900442
C           3.6475269     0.3362518    -1.0834860
H           2.8149013     0.6919497    -1.6778800
C           4.8282081     1.1164283    -0.9221768
H           4.8760945     2.0947499    -1.3949535
O           6.7646480    -1.1455419     1.1188666
26
427_C12H11NO2_0-9-10-11 (-15,) energy =    -669.0891335
C           2.3878254    -1.7939150    -0.5258683
C           1.2113141    -1.2685674     0.0479071
H           1.2355174    -0.2402517     0.3968995
C           0.0603195    -2.0280993     0.2072397
H          -0.8240529    -1.5913695     0.6608655
C           0.0682409    -3.3641035    -0.2055865
H          -0.8167417    -3.9824140    -0.0828838
C           1.2024912    -3.9019914    -0.7953800
H           1.2199874    -4.9246561    -1.1584304
C           2.3666881    -3.1345645    -0.9770574
O           3.3471939    -3.8080928    -1.6456001
C           4.4520835    -3.1572843    -2.2694650
H           4.8311044    -3.8748409    -3.0005025
H           5.2449762    -2.9208306    -1.5545617
H           4.1402422    -2.2433248    -2.7849389
C           5.8830840     0.6789489    -0.2221356
H           6.7797294     1.2752164    -0.0966073
C           5.8438760    -0.5853232     0.4885367
N           4.6387445    -1.2982392     0.2790449
H           4.5706611    -2.1616921     0.8073422
C           3.5832774    -0.9085498    -0.5078699
C           3.6619775     0.2983930    -1.1551207
H           2.8440963     0.6219761    -1.7871030
C           4.8353032     1.0912866    -0.9963728
H           4.8940642     2.0463732    -1.5133545
O           6.7118329    -1.0565482     1.2167052
26
427_C12H11NO2_0-9-10-11 (0,) energy =    -669.0881705
C           2.3502573    -1.7062754    -0.7925901
C           1.1551830    -0.9585910    -0.8431852
H           1.2092643     0.0953756    -0.5849389
C          -0.0588230    -1.5186327    -1.2162415
H          -0.9564359    -0.9087574    -1.2452245
C          -0.1000216    -2.8738290    -1.5587203
H          -1.0352844    -3.3388774    -1.8581891
C           1.0559411    -3.6368177    -1.5087375
H           1.0440106    -4.6942499    -1.7528672
C           2.2901616    -3.0794629    -1.1244998
O           3.2898648    -4.0054982    -1.0897997
C           4.6245856    -3.7117501    -0.6902737
H           5.1332450    -4.6777359    -0.6735754
H           4.6603662    -3.2647552     0.3076503
H           5.1295272    -3.0531567    -1.4037706
C           5.8654896     0.6288588     0.0130166
H           6.7532850     1.2333541     0.1606291
C           5.5786275     0.2246997    -1.3510568
N           4.4039319    -0.5581948    -1.4580577
H           4.1621005    -0.8185697    -2.4082396
C           3.5786131    -0.9399454    -0.4295417
C           3.8807278    -0.5224255     0.8404817
H           3.2400398    -0.8090109     1.6653132
C           5.0462422     0.2728826     1.0466110
H           5.2848998     0.5981330     2.0566384
O           6.2270569     0.4926969    -2.3575949
26
427_C12H11NO2_0-9-10-11 (15,) energy =    -669.0891335
C           2.3380351    -1.7000335    -0.7624071
C           1.1128616    -1.0094099    -0.6568013
H           1.1378107     0.0069081    -0.2742755
C          -0.0923853    -1.5716534    -1.0547411
H          -1.0143497    -1.0054706    -0.9653548
C          -0.0934003    -2.8638004    -1.5893502
H          -1.0217459    -3.3228739    -1.9180285
C           1.0924953    -3.5768292    -1.6837144
H           1.1112265    -4.5947334    -2.0598284
C           2.3150720    -3.0220918    -1.2655762
O           3.3555260    -3.8999121    -1.3588718
C           4.5912259    -3.7183887    -0.6707746
H           5.0496310    -4.7092779    -0.6401372
H           4.4323452    -3.3593797     0.3510460
H           5.2573297    -3.0312065    -1.1997429
C           5.8690744     0.6331797    -0.0459434
H           6.7642823     1.2319181     0.0780892
C           5.6259002     0.1029674    -1.3743703
N           4.4359326    -0.6598966    -1.4538902
H           4.2230199    -0.9993887    -2.3859335
C           3.5634251    -0.9256193    -0.4275422
C           3.8302868    -0.3966077     0.8096670
H           3.1592395    -0.5987314     1.6354489
C           5.0032360     0.3936216     0.9837001
H           5.2119752     0.8085811     1.9671284
O           6.3196707     0.2562463    -2.3748139
26
427_C12H11NO2_0-9-10-11 (30,) energy =    -669.0905768
C           2.3569901    -1.6839511    -0.7598417
C           1.1137181    -1.0514943    -0.5588932
H           1.1135761    -0.0630976    -0.1087565
C          -0.0824933    -1.6327005    -0.9598287
H          -1.0219672    -1.1130067    -0.7983047
C          -0.0555604    -2.8776191    -1.5954749
H          -0.9783026    -3.3448737    -1.9282539
C           1.1525940    -3.5363169    -1.7816911
H           1.1953585    -4.5223733    -2.2331781
C           2.3630305    -2.9643407    -1.3600598
O           3.4532019    -3.7671313    -1.5523886
C           4.5733817    -3.7318097    -0.6652392
H           5.0074417    -4.7338775    -0.7022853
H           4.2600415    -3.5087417     0.3600736
H           5.3233990    -3.0038800    -0.9846220
C           5.8925232     0.6462239    -0.0781970
H           6.7916960     1.2407184     0.0370690
C           5.6759293     0.0490649    -1.3827675
N           4.4782975    -0.7018197    -1.4536439
H           4.2897097    -1.0964641    -2.3691672
C           3.5773504    -0.9033121    -0.4372525
C           3.8236623    -0.3184151     0.7796872
H           3.1346719    -0.4755665     1.6004711
C           5.0008345     0.4668883     0.9417629
H           5.1919635     0.9277456     1.9082021
O           6.3981144     0.1394337    -2.3707227
26
427_C12H11NO2_0-9-10-11 (45,) energy =    -669.0921400
C           2.3662059    -1.6449794    -0.7593187
C           1.1138557    -1.0598888    -0.4927695
H           1.0946578    -0.0878286    -0.0090222
C          -0.0760958    -1.6679377    -0.8769281
H          -1.0255555    -1.1854236    -0.6655030
C          -0.0341354    -2.8853020    -1.5613541
H          -0.9536358    -3.3678011    -1.8808867
C           1.1888263    -3.4969011    -1.8155679
H           1.2481489    -4.4608968    -2.3107236
C           2.3886190    -2.8980046    -1.4126046
O           3.5221915    -3.6231156    -1.6831723
C           4.5216059    -3.7745473    -0.6674407
H           5.0134715    -4.7274172    -0.8768286
H           4.0646597    -3.8116131     0.3276848
H           5.2637933    -2.9731842    -0.7005304
C           5.9107814     0.6752533    -0.1027945
H           6.8157882     1.2616703     0.0082178
C           5.7245754     0.0083431    -1.3784978
N           4.5200433    -0.7296966    -1.4459185
H           4.3675606    -1.1982001    -2.3330008
C           3.5845781    -0.8604453    -0.4491864
C           3.8043152    -0.2144264     0.7422297
H           3.0902409    -0.3177901     1.5499138
C           4.9875839     0.5623374     0.8982348
H           5.1573652     1.0705379     1.8447124
O           6.4801276     0.0334493    -2.3450617
26
427_C12H11NO2_0-9-10-11 (60,) energy =    -669.0943031
C           2.3746972    -1.5956378    -0.7427326
C           1.1120202    -1.0608925    -0.4285997
H           1.0683521    -0.0975517     0.0701697
C          -0.0673091    -1.7076921    -0.7852309
H          -1.0254093    -1.2625024    -0.5341011
C          -0.0084559    -2.9103660    -1.4917752
H          -0.9210578    -3.4188156    -1.7898380
C           1.2287260    -3.4682595    -1.8041732
H           1.3067248    -4.4149789    -2.3293128
C           2.4138284    -2.8274254    -1.4347646
O           3.5863825    -3.4721126    -1.7712245
C           4.4565227    -3.8498497    -0.6963466
H           5.3190571    -4.3247698    -1.1673036
H           3.9536557    -4.5700944    -0.0387706
H           4.7937534    -2.9935875    -0.1067651
C           5.9092099     0.7389729    -0.0787994
H           6.8163343     1.3210600     0.0375220
C           5.7959271    -0.0460814    -1.2945769
N           4.5831548    -0.7656220    -1.3788467
H           4.4948974    -1.3429967    -2.2087825
C           3.5833689    -0.7953089    -0.4381513
C           3.7404820    -0.0488794     0.7052527
H           2.9801625    -0.0724168     1.4758554
C           4.9235259     0.7261591     0.8671590
H           5.0408434     1.3152559     1.7738504
O           6.6208429    -0.1295949    -2.1994403
26
427_C12H11NO2_0-9-10-11 (75,) energy =    -669.0961779
C           2.3798695    -1.5416053    -0.7627651
C           1.1122675    -1.0407938    -0.4149077
H           1.0503159    -0.0738370     0.0742151
C          -0.0568661    -1.7306529    -0.7223894
H          -1.0190533    -1.3099042    -0.4456661
C           0.0124174    -2.9443134    -1.4083841
H          -0.8946289    -3.4840292    -1.6652144
C           1.2551656    -3.4631507    -1.7661934
H           1.3451597    -4.4056668    -2.2972834
C           2.4269597    -2.7751099    -1.4501950
O           3.6235841    -3.3427390    -1.8509964
C           4.3984415    -3.9406865    -0.8022887
H           5.3076159    -4.3170221    -1.2746158
H           3.8460296    -4.7720899    -0.3471355
H           4.6644264    -3.2132421    -0.0277980
C           5.9169432     0.7803514    -0.0517101
H           6.8268598     1.3544049     0.0817611
C           5.8528255    -0.0696327    -1.2264079
N           4.6348045    -0.7749709    -1.3363031
H           4.5824387    -1.4100323    -2.1265455
C           3.5862771    -0.7386815    -0.4517551
C           3.6982199     0.0664063     0.6581915
H           2.9016071     0.0956355     1.3905561
C           4.8838849     0.8313846     0.8410264
H           4.9640429     1.4657487     1.7208610
O           6.7236407    -0.2162986    -2.0793221
26
427_C12H11NO2_0-9-10-11 (90,) energy =    -669.0967885
C           2.3969107    -1.4958910    -0.7767719
C           1.1229721    -1.0169078    -0.4173260
H           1.0444590    -0.0403640     0.0491595
C          -0.0343375    -1.7436303    -0.6783729
H          -1.0002057    -1.3381952    -0.3916761
C           0.0483799    -2.9763108    -1.3287595
H          -0.8505074    -3.5448592    -1.5493385
C           1.2945256    -3.4680800    -1.7099509
H           1.3927110    -4.4146617    -2.2327927
C           2.4547131    -2.7408499    -1.4415277
O           3.6607231    -3.2594511    -1.8832941
C           4.3428622    -4.0871576    -0.9317217
H           5.2559472    -4.4284521    -1.4227771
H           3.7242266    -4.9504566    -0.6575876
H           4.6012420    -3.5229336    -0.0275260
C           5.9204916     0.8442640    -0.0393711
H           6.8283373     1.4187939     0.1057157
C           5.9032131    -0.0705846    -1.1653449
N           4.6851137    -0.7713432    -1.2943133
H           4.6625380    -1.4531759    -2.0461601
C           3.5954782    -0.6793334    -0.4661585
C           3.6641593     0.1858241     0.6027413
H           2.8386354     0.2609810     1.2984356
C           4.8466478     0.9510578     0.7988557
H           4.8907675     1.6324190     1.6455104
O           6.8127701    -0.2734443    -1.9653298
26
427_C12H11NO2_0-9-10-11 (105,) energy =    -669.0967704
C           2.4165534    -1.4712577    -0.7654416
C           1.1332293    -1.0015505    -0.4236286
H           1.0379305    -0.0129944     0.0129287
C          -0.0121659    -1.7540644    -0.6585676
H          -0.9841244    -1.3550421    -0.3838200
C           0.0897895    -3.0066659    -1.2676400
H          -0.7998296    -3.5963585    -1.4694310
C           1.3419890    -3.4867414    -1.6403897
H           1.4482851    -4.4431405    -2.1437288
C           2.4917993    -2.7327086    -1.3965911
O           3.7089038    -3.2225718    -1.8371962
C           4.2803343    -4.2618793    -1.0336160
H           5.2030610    -4.5616541    -1.5335090
H           3.6033012    -5.1215182    -0.9635062
H           4.5091124    -3.8966785    -0.0248802
C           5.9076981     0.9154376    -0.0086653
H           6.8080562     1.4995796     0.1445000
C           5.9336806    -0.0489295    -1.0917474
N           4.7228286    -0.7585497    -1.2351033
H           4.7315797    -1.4766642    -1.9522434
C           3.6024498    -0.6352775    -0.4541961
C           3.6306614     0.2767276     0.5780039
H           2.7821816     0.3794649     1.2414660
C           4.8029356     1.0542199     0.7835862
H           4.8136642     1.7720332     1.6007282
O           6.8731269    -0.2853996    -1.8472710
26
427_C12H11NO2_0-9-10-11 (120,) energy =    -669.0966667
C           2.4414115    -1.4475808    -0.7536237
C           1.1538045    -0.9676988    -0.4442945
H           1.0542840     0.0356631    -0.0440167
C           0.0115944    -1.7300620    -0.6608294
H          -0.9640160    -1.3242425    -0.4103396
C           0.1243013    -3.0042254    -1.2204781
H          -0.7615418    -3.6042201    -1.4082846
C           1.3801275    -3.4956999    -1.5648849
H           1.4819154    -4.4698780    -2.0330168
C           2.5279686    -2.7312588    -1.3392244
O           3.7589454    -3.2076196    -1.7431038
C           4.2150966    -4.4171322    -1.1301687
H           5.2063495    -4.6096600    -1.5441289
H           3.5557632    -5.2611409    -1.3629295
H           4.2850580    -4.2997956    -0.0421254
C           5.9074400     0.9824141    -0.0157146
H           6.8013295     1.5773506     0.1336448
C           5.9534270    -0.0062344    -1.0754951
N           4.7498378    -0.7284652    -1.2164097
H           4.7783466    -1.4668084    -1.9112021
C           3.6203628    -0.5986988    -0.4504172
C           3.6301323     0.3366993     0.5615159
H           2.7738185     0.4466481     1.2136476
C           4.7930991     1.1288696     0.7618544
H           4.7890230     1.8646276     1.5629768
O           6.9032026    -0.2533367    -1.8149224
26
427_C12H11NO2_0-9-10-11 (135,) energy =    -669.0972487
C           2.4660359    -1.4401191    -0.7235257
C           1.1712380    -0.9587962    -0.4549886
H           1.0604587     0.0573858    -0.0914850
C           0.0369201    -1.7373153    -0.6593238
H          -0.9454345    -1.3305716    -0.4389531
C           0.1704659    -3.0320503    -1.1617782
H          -0.7061277    -3.6504220    -1.3330033
C           1.4351879    -3.5293822    -1.4663684
H           1.5439202    -4.5271040    -1.8786418
C           2.5737619    -2.7439213    -1.2635123
O           3.8243371    -3.2096492    -1.5933300
C           4.1709768    -4.5397958    -1.2043109
H           5.2554318    -4.6092674    -1.3073751
H           3.7029840    -5.2880375    -1.8551230
H           3.8833224    -4.7280704    -0.1638747
C           5.8929992     1.0523986    -0.0137973
H           6.7769037     1.6636323     0.1290006
C           5.9581827     0.0479604    -1.0572587
N           4.7667206    -0.6958264    -1.1900536
H           4.8140478    -1.4443415    -1.8720271
C           3.6327945    -0.5722329    -0.4298016
C           3.6242521     0.3799000     0.5665301
H           2.7631861     0.4864757     1.2130723
C           4.7736245     1.1935950     0.7577028
H           4.7552703     1.9419061     1.5469273
O           6.9136767    -0.1958750    -1.7905770
26
427_C12H11NO2_0-9-10-11 (150,) energy =    -669.0985761
C           2.4843089    -1.4476835    -0.6944151
C           1.1858640    -0.9558172    -0.4755520
H           1.0700433     0.0734294    -0.1524525
C           0.0538441    -1.7394757    -0.6786674
H          -0.9325817    -1.3235177    -0.4977381
C           0.1990701    -3.0513216    -1.1271489
H          -0.6735109    -3.6762823    -1.2951632
C           1.4700716    -3.5649206    -1.3789844
H           1.5795948    -4.5808314    -1.7420201
C           2.6056332    -2.7735486    -1.1797546
O           3.8687853    -3.2400620    -1.4338874
C           4.1292954    -4.6341066    -1.2883216
H           5.2159475    -4.7331273    -1.2680390
H           3.7338398    -5.2101354    -2.1339527
H           3.7027208    -5.0151450    -0.3534769
C           5.8906137     1.0814570    -0.0162768
H           6.7692189     1.7020041     0.1188518
C           5.9696426     0.0544685    -1.0363795
N           4.7845172    -0.7012358    -1.1592261
H           4.8435906    -1.4623402    -1.8256599
C           3.6444965    -0.5686424    -0.4096835
C           3.6224261     0.4064069     0.5638209
H           2.7552563     0.5206823     1.2009344
C           4.7648032     1.2323321     0.7441093
H           4.7359671     1.9982837     1.5159162
O           6.9306463    -0.1982042    -1.7595376
26
427_C12H11NO2_0-9-10-11 (165,) energy =    -669.0996448
C           2.4912221    -1.4422703    -0.6597593
C           1.1908740    -0.9390977    -0.4929544
H           1.0724630     0.1029706    -0.2149371
C           0.0600339    -1.7257025    -0.6963447
H          -0.9290597    -1.2997793    -0.5587924
C           0.2129660    -3.0529924    -1.0901100
H          -0.6565907    -3.6821380    -1.2583996
C           1.4883091    -3.5829760    -1.2852429
H           1.5956875    -4.6139575    -1.6012296
C           2.6222177    -2.7897766    -1.0830586
O           3.8942014    -3.2592895    -1.2681796
C           4.1081268    -4.6624398    -1.3744510
H           5.1907715    -4.7965789    -1.3643935
H           3.7033345    -5.0626384    -2.3123252
H           3.6612350    -5.1934021    -0.5257009
C           5.8822381     1.1172941    -0.0199441
H           6.7572738     1.7447810     0.1059555
C           5.9765597     0.0586951    -1.0058066
N           4.7958906    -0.7055317    -1.1167390
H           4.8657063    -1.4871754    -1.7574989
C           3.6463306    -0.5529762    -0.3858456
C           3.6090838     0.4533566     0.5544953
H           2.7333023     0.5849924     1.1763810
C           4.7467757     1.2886184     0.7215947
H           4.7063801     2.0789009     1.4679356
O           6.9459747    -0.2128317    -1.7107623
26
427_C12H11NO2_0-9-10-11 (180,) energy =    -669.0999192
C           2.4929878    -1.4728402    -0.4876639
C           1.2279911    -1.0820616    -0.0209063
H           1.1395680    -0.1306156     0.4929706
C           0.1010633    -1.8867954    -0.1690927
H          -0.8594516    -1.5515145     0.2098358
C           0.2253820    -3.1262989    -0.7912160
H          -0.6400218    -3.7717146    -0.9128559
C           1.4689902    -3.5570880    -1.2540651
H           1.5521011    -4.5258496    -1.7317714
C           2.5987247    -2.7463379    -1.1046504
O           3.8424054    -3.1200365    -1.5361600
C           4.0092902    -4.3866671    -2.1625668
H           5.0697264    -4.4541958    -2.4092148
H           3.4152056    -4.4560101    -3.0817853
H           3.7371505    -5.2068991    -1.4868939
C           5.8802028     1.1059025     0.0948080
H           6.7594624     1.7203230     0.2518135
C           6.0823478    -0.3295465     0.0860440
N           4.8911260    -1.0576401    -0.1151734
H           5.0227609    -2.0592484    -0.1885512
C           3.6373229    -0.5433057    -0.3205975
C           3.4956738     0.8270831    -0.3240576
H           2.5293837     1.2743759    -0.5170824
C           4.6396948     1.6426590    -0.1090608
H           4.5162599     2.7233579    -0.1160106
O           7.1455495    -0.9292603     0.2294457
