25
140_C13H10O2_7-8-19-17 (-165,) energy =    -651.8443744
C           0.5751977     0.6988682     0.4922421
O           1.3501563     1.8145278     0.6399378
H           0.9483440     2.3911347     1.3084857
C          -0.5961648     0.5142403     1.2366200
H          -0.8846116     1.2661385     1.9694428
C          -1.3916887    -0.6107452     1.0320002
H          -2.2955012    -0.7409573     1.6210223
C           0.9622515    -0.2585156    -0.4650978
C           2.1724342    -0.1333833    -1.3526597
C          -1.0360606    -1.5564154     0.0679476
H          -1.6576306    -2.4296370    -0.1048216
C           6.0929459     0.7636441     0.1547000
H           7.0943942     0.9778006     0.5190154
C           5.7959943     0.9135466    -1.2033463
H           6.5653987     1.2446161    -1.8956784
C           0.1229111    -1.3620847    -0.6774935
H           0.4090768    -2.0712075    -1.4479657
C           4.5160827     0.6306937    -1.6705021
H           4.2686839     0.7215342    -2.7231486
C           3.5111591     0.2169863    -0.7824681
C           3.8171073     0.0678422     0.5774954
H           3.0529074    -0.2724521     1.2687693
C           5.1042869     0.3336000     1.0421108
H           5.3362584     0.2047924     2.0959495
O           2.0582706    -0.3890715    -2.5461064
25
140_C13H10O2_7-8-19-17 (-150,) energy =    -651.8437901
C           0.6343339     0.6593116     0.4716801
O           1.4723250     1.7261996     0.6209028
H           1.0929585     2.3352228     1.2738277
C          -0.5637921     0.5705308     1.1916786
H          -0.8172790     1.3549652     1.9030951
C          -1.4295687    -0.5012385     0.9913504
H          -2.3524525    -0.5554463     1.5624954
C           0.9750738    -0.3429991    -0.4591148
C           2.2114127    -0.3321754    -1.3151196
C          -1.1187709    -1.4907646     0.0554639
H          -1.7953450    -2.3232399    -0.1115162
C           6.0584978     0.8743287     0.1640577
H           7.0404337     1.1703754     0.5241071
C           5.7059404     1.0979401    -1.1698073
H           6.4117056     1.5707631    -1.8475102
C           0.0666087    -1.3933624    -0.6653845
H           0.3239427    -2.1374506    -1.4125432
C           4.4521816     0.7075076    -1.6333540
H           4.1696518     0.8511836    -2.6714159
C           3.5297268     0.1119286    -0.7615555
C           3.8844390    -0.0973926     0.5778423
H           3.1743978    -0.5614736     1.2562045
C           5.1493178     0.2690114     1.0346304
H           5.4249533     0.0866600     2.0699259
O           2.1376317    -0.7216998    -2.4751978
25
140_C13H10O2_7-8-19-17 (-135,) energy =    -651.8420503
C           0.6915924     0.6277086     0.4559526
O           1.5872208     1.6422972     0.6222071
H           1.2211003     2.2840859     1.2510303
C          -0.5357749     0.6310077     1.1323740
H          -0.7618282     1.4444565     1.8200915
C          -1.4624999    -0.3854202     0.9212307
H          -2.4065598    -0.3670254     1.4591311
C           0.9980926    -0.4143159    -0.4444680
C           2.2612458    -0.5161391    -1.2505218
C          -1.1839354    -1.4145339     0.0176213
H          -1.9067511    -2.2056076    -0.1567069
C           6.0286160     0.9821839     0.1696796
H           6.9885740     1.3556757     0.5166205
C           5.5985265     1.2615527    -1.1298732
H           6.2205337     1.8558891    -1.7938897
C           0.0301058    -1.4102999    -0.6586067
H           0.2686176    -2.1866877    -1.3784300
C           4.3739178     0.7716762    -1.5795626
H           4.0384007     0.9599207    -2.5948239
C           3.5605156     0.0166400    -0.7250698
C           3.9855908    -0.2411606     0.5842745
H           3.3507175    -0.8163058     1.2530475
C           5.2242558     0.2234772     1.0233071
H           5.5593122     0.0006722     2.0329022
O           2.2288565    -1.0414235    -2.3576039
25
140_C13H10O2_7-8-19-17 (-120,) energy =    -651.8397277
C           0.7275207     0.5921400     0.4519085
O           1.6742019     1.5503391     0.6555391
H           1.3184839     2.2185894     1.2625735
C          -0.5287218     0.6831714     1.0676137
H          -0.7343217     1.5207927     1.7323423
C          -1.5062252    -0.2770488     0.8284940
H          -2.4715936    -0.1894451     1.3197875
C           1.0095814    -0.4829249    -0.4189095
C           2.3000433    -0.6904650    -1.1553746
C          -1.2495695    -1.3404598    -0.0420739
H          -2.0108227    -2.0897651    -0.2361618
C           6.0035647     1.0638799     0.1484336
H           6.9460549     1.5012209     0.4674100
C           5.4680376     1.3888791    -1.0998490
H           5.9908525     2.0827333    -1.7528498
C          -0.0072305    -1.4250215    -0.6568753
H           0.2202497    -2.2306434    -1.3473328
C           4.2654727     0.8183722    -1.5150283
H           3.8539405     1.0492943    -2.4932710
C           3.5826918    -0.0693194    -0.6759169
C           4.1095252    -0.3744267     0.5844169
H           3.5714495    -1.0495477     1.2450722
C           5.3258344     0.1759603     0.9868659
H           5.7413439    -0.0820632     1.9574949
O           2.3122626    -1.3632369    -2.1794612
25
140_C13H10O2_7-8-19-17 (-105,) energy =    -651.8376953
C           0.7509180     0.5650628     0.4852723
O           1.7395083     1.4551028     0.7744528
H           1.3809727     2.1434766     1.3570546
C          -0.5390599     0.7380884     1.0079763
H          -0.7372166     1.5878406     1.6594527
C          -1.5560255    -0.1579678     0.6984172
H          -2.5472763    -0.0057502     1.1170719
C           1.0266969    -0.5290478    -0.3650798
C           2.3505563    -0.8340863    -0.9994081
C          -1.3037539    -1.2428165    -0.1473770
H          -2.0945394    -1.9444875    -0.3942813
C           6.0076126     1.1506628     0.1079501
H           6.9398954     1.6407196     0.3760362
C           5.3459901     1.5009030    -1.0707207
H           5.7611555     2.2654005    -1.7222926
C          -0.0279060    -1.4108401    -0.6669242
H           0.2018237    -2.2374298    -1.3311140
C           4.1538145     0.8668490    -1.4200998
H           3.6456254     1.1285255    -2.3441239
C           3.6114725    -0.1165142    -0.5862807
C           4.2692566    -0.4577144     0.6001392
H           3.8460556    -1.2156321     1.2545558
C           5.4692989     0.1670385     0.9399213
H           5.9826142    -0.1128048     1.8562399
O           2.4217255    -1.6753380    -1.8869375
25
140_C13H10O2_7-8-19-17 (-90,) energy =    -651.8370733
C           0.7457528     0.5227133     0.5413636
O           1.7602790     1.3289508     0.9571866
H           1.3941847     2.0276877     1.5225761
C          -0.5747130     0.7757512     0.9412010
H          -0.7784198     1.6280225     1.5876455
C          -1.6130543    -0.0477178     0.5214708
H          -2.6284743     0.1676541     0.8432885
C           1.0306230    -0.5788276    -0.2966078
C           2.3878557    -0.9693401    -0.7979643
C          -1.3503743    -1.1434406    -0.3073102
H          -2.1573988    -1.7900478    -0.6378491
C           6.0213636     1.1988766     0.0063841
H           6.9526818     1.7269468     0.1932052
C           5.2172412     1.5585024    -1.0767480
H           5.5221213     2.3654002    -1.7381284
C          -0.0437285    -1.3931985    -0.7016003
H           0.1974545    -2.2345555    -1.3427263
C           4.0221271     0.8806682    -1.3182459
H           3.3996618     1.1601863    -2.1643356
C           3.6226137    -0.1612399    -0.4749524
C           4.4352111    -0.5277871     0.6028260
H           4.1355551    -1.3473818     1.2506469
C           5.6282326     0.1536542     0.8443145
H           6.2539536    -0.1365942     1.6843605
O           2.5189482    -1.9727502    -1.4877687
25
140_C13H10O2_7-8-19-17 (-75,) energy =    -651.8382611
C           0.7307801     0.4983128     0.6102568
O           1.7445822     1.2328988     1.1456214
H           1.3654511     1.9429204     1.6877672
C          -0.6066867     0.8182330     0.8845569
H          -0.8276598     1.6736404     1.5210886
C          -1.6408307     0.0528637     0.3568758
H          -2.6701950     0.3208037     0.5796458
C           1.0371076    -0.6108015    -0.2089792
C           2.4169771    -1.0694398    -0.5710497
C          -1.3564811    -1.0540370    -0.4491855
H          -2.1602166    -1.6564550    -0.8611818
C           6.0194613     1.2333302    -0.0936821
H           6.9467603     1.7913245     0.0060274
C           5.0801697     1.6026953    -1.0582551
H           5.2773742     2.4440393    -1.7175379
C          -0.0319825    -1.3723407    -0.7157307
H           0.2252911    -2.2286809    -1.3304099
C           3.8869323     0.8908520    -1.1819272
H           3.1545556     1.1837221    -1.9301148
C           3.6269268    -0.1988228    -0.3433906
C           4.5851537    -0.5869134     0.5995593
H           4.4003104    -1.4565956     1.2238241
C           5.7684213     0.1381824     0.7357331
H           6.5012424    -0.1604279     1.4807870
O           2.5837638    -2.1847305    -1.0491826
25
140_C13H10O2_7-8-19-17 (-60,) energy =    -651.8405235
C           0.7072526     0.4888651     0.6416209
O           1.7006354     1.1831899     1.2645361
H           1.3051087     1.9080884     1.7741065
C          -0.6358237     0.8566080     0.8024788
H          -0.8795944     1.7222033     1.4165345
C          -1.6484779     0.1219837     0.1941882
H          -2.6829091     0.4268672     0.3282167
C           1.0416502    -0.6349175    -0.1445637
C           2.4328424    -1.1455469    -0.3753825
C          -1.3367658    -1.0023518    -0.5761071
H          -2.1239319    -1.5819915    -1.0483605
C           6.0070890     1.2294361    -0.1871919
H           6.9280899     1.8060580    -0.1634070
C           4.9545196     1.6272047    -1.0141085
H           5.0578699     2.5072466    -1.6434742
C          -0.0059051    -1.3694235    -0.7278931
H           0.2693635    -2.2440211    -1.3083383
C           3.7683768     0.8943660    -1.0358079
H           2.9457260     1.2088309    -1.6730481
C           3.6300971    -0.2476431    -0.2373892
C           4.7043074    -0.6663895     0.5572805
H           4.6098649    -1.5798964     1.1367851
C           5.8784355     0.0831930     0.6010107
H           6.6998278    -0.2353771     1.2373839
O           2.6066480    -2.3222510    -0.6700841
25
140_C13H10O2_7-8-19-17 (-45,) energy =    -651.8427364
C           0.6829742     0.4943922     0.6823672
O           1.6464107     1.1605540     1.3811373
H           1.2349620     1.8984118     1.8582195
C          -0.6576087     0.8984730     0.7351808
H          -0.9265282     1.7742179     1.3238067
C          -1.6384487     0.1836587     0.0540145
H          -2.6719154     0.5159117     0.1036981
C           1.0485432    -0.6421932    -0.0688907
C           2.4425854    -1.1904509    -0.1756800
C          -1.2970495    -0.9566345    -0.6782420
H          -2.0597777    -1.5222023    -1.2045663
C           5.9904271     1.2238424    -0.2777235
H           6.9030427     1.8122875    -0.3254875
C           4.8483763     1.6491978    -0.9597222
H           4.8734138     2.5625373    -1.5481981
C           0.0322319    -1.3603196    -0.7210678
H           0.3259283    -2.2508740    -1.2674593
C           3.6739109     0.9015152    -0.8876670
H           2.7832626     1.2348374    -1.4134113
C           3.6366977    -0.2848538    -0.1433672
C           4.7974350    -0.7265109     0.5058969
H           4.7710669    -1.6696434     1.0428037
C           5.9618822     0.0363380     0.4585759
H           6.8519595    -0.3006632     0.9831787
O           2.6065835    -2.3986597    -0.3022172
25
140_C13H10O2_7-8-19-17 (-30,) energy =    -651.8441109
C           0.6515452     0.5133020     0.7192522
O           1.5782963     1.1690138     1.4775979
H           1.1485543     1.9153000     1.9242237
C          -0.6830763     0.9352908     0.6754220
H          -0.9816026     1.8191501     1.2369994
C          -1.6229560     0.2249895    -0.0668408
H          -2.6531527     0.5697419    -0.0928820
C           1.0543373    -0.6327811     0.0047754
C           2.4477267    -1.1992446     0.0144773
C          -1.2457705    -0.9269946    -0.7611332
H          -1.9770785    -1.4899224    -1.3329339
C           5.9819374     1.2088165    -0.3669317
H           6.8882713     1.7983066    -0.4789494
C           4.7776897     1.6714560    -0.9017747
H           4.7469664     2.6157450    -1.4387978
C           0.0785189    -1.3489855    -0.7058420
H           0.3944980    -2.2516080    -1.2192707
C           3.6124559     0.9219043    -0.7482170
H           2.6768397     1.2821523    -1.1653059
C           3.6451773    -0.3046861    -0.0707833
C           4.8642202    -0.7760884     0.4381116
H           4.8815316    -1.7421641     0.9323040
C           6.0228068    -0.0155946     0.3063753
H           6.9601966    -0.3792981     0.7186418
O           2.5954489    -2.4157359     0.0499963
25
140_C13H10O2_7-8-19-17 (-15,) energy =    -651.8443188
C           0.6093288     0.5315277     0.7558680
O           1.4924045     1.1908381     1.5643087
H           1.0383318     1.9379058     1.9844968
C          -0.7199034     0.9501097     0.6233388
H          -1.0551302     1.8373389     1.1581596
C          -1.6084815     0.2306034    -0.1725206
H          -2.6359779     0.5709852    -0.2681363
C           1.0600628    -0.6167712     0.0775688
C           2.4528929    -1.1791814     0.1956304
C          -1.1842144    -0.9256086    -0.8305738
H          -1.8751804    -1.4972407    -1.4425346
C           5.9861244     1.1780489    -0.4532222
H           6.8903930     1.7565216    -0.6240419
C           4.7457129     1.6917809    -0.8367980
H           4.6833342     2.6668140    -1.3125845
C           0.1354014    -1.3441382    -0.6856115
H           0.4825001    -2.2521441    -1.1689162
C           3.5842639     0.9546911    -0.6106999
H           2.6237804     1.3550264    -0.9177037
C           3.6543584    -0.3105367    -0.0106206
C           4.9072259    -0.8251650     0.3580016
H           4.9465916    -1.8119524     0.8075450
C           6.0647487    -0.0824327     0.1466796
H           7.0295268    -0.4849920     0.4434450
O           2.5867323    -2.3823759     0.3871890
25
140_C13H10O2_7-8-19-17 (0,) energy =    -651.8434806
C           0.4972152     0.7601256    -0.5724959
O           1.2676040     1.5939173    -1.3366283
H           0.7689194     2.4052144    -1.5206188
C          -0.7892957     1.1193778    -0.1560553
H          -1.1875732     2.0958194    -0.4272355
C          -1.5597352     0.2276756     0.5877947
H          -2.5559796     0.5209810     0.9073360
C           1.0258046    -0.4988436    -0.2365092
C           2.3762577    -0.9937058    -0.6954124
C          -1.0595918    -1.0358067     0.9069053
H          -1.6610081    -1.7386396     1.4752784
C           6.0507591     0.9829735     0.3379798
H           6.9893218     1.4676200     0.5943832
C           4.8431600     1.5140425     0.7950377
H           4.8400921     2.4102854     1.4095388
C           0.2171748    -1.3920800     0.4783882
H           0.6144482    -2.3789555     0.6957410
C           3.6377080     0.8958117     0.4655791
H           2.7051149     1.3085258     0.8328429
C           3.6297986    -0.2662989    -0.3192083
C           4.8499082    -0.7933544    -0.7735570
H           4.8260587    -1.6922711    -1.3805950
C           6.0518962    -0.1736150    -0.4478740
H           6.9907226    -0.5891380    -0.8040373
O           2.4336560    -2.0641670    -1.2881011
25
140_C13H10O2_7-8-19-17 (15,) energy =    -651.8443206
C           0.5538257     0.7291828    -0.5465454
O           1.3800349     1.5347782    -1.2790233
H           0.9129849     2.3586578    -1.4887485
C          -0.7441030     1.1267914    -0.2055230
H          -1.0992009     2.1103373    -0.5091305
C          -1.5794165     0.2660008     0.5030852
H          -2.5829914     0.5912040     0.7634924
C           1.0275862    -0.5414355    -0.1683008
C           2.3863580    -1.0810562    -0.5329188
C          -1.1342083    -1.0076639     0.8626784
H          -1.7855300    -1.6865115     1.4045625
C           6.0330297     1.0467758     0.2607827
H           6.9655758     1.5670396     0.4637498
C           4.8480198     1.4794841     0.8594910
H           4.8578453     2.3316036     1.5338204
C           0.1533860    -1.4025843     0.5101713
H           0.5134636    -2.3961136     0.7587737
C           3.6494523     0.8189613     0.5940984
H           2.7321948     1.1535689     1.0671700
C           3.6282025    -0.2901903    -0.2631584
C           4.8267495    -0.7273322    -0.8487172
H           4.7960451    -1.5964365    -1.4976342
C           6.0202454    -0.0580859    -0.5959510
H           6.9419626    -0.3975739    -1.0608393
O           2.4648269    -2.2171432    -0.9859235
25
140_C13H10O2_7-8-19-17 (30,) energy =    -651.8441109
C           0.6012700     0.7001032    -0.5240305
O           1.4759964     1.4918540    -1.2109809
H           1.0307228     2.3202613    -1.4488239
C          -0.7108938     1.1171510    -0.2680982
H          -1.0316444     2.1029822    -0.6011900
C          -1.6017564     0.2755941     0.3929658
H          -2.6147395     0.6177692     0.5869196
C           1.0315952    -0.5754637    -0.1069282
C           2.4009892    -1.1415235    -0.3654711
C          -1.1989031    -1.0011992     0.7915749
H          -1.8928776    -1.6648180     1.2981968
C           6.0256526     1.0940652     0.1811218
H           6.9556027     1.6369669     0.3292397
C           4.8882430     1.4454500     0.9112841
H           4.9337844     2.2548278     1.6350606
C           0.1019559    -1.4157122     0.5254529
H           0.4352403    -2.4098615     0.8061084
C           3.6920429     0.7576309     0.7133267
H           2.8085103     1.0310832     1.2822855
C           3.6275462    -0.2978990    -0.2065650
C           4.7817298    -0.6635061    -0.9146982
H           4.7260060    -1.5031079    -1.6001116
C           5.9696937     0.0396998    -0.7350545
H           6.8553092    -0.2381776    -1.3002204
O           2.5084514    -2.3243595    -0.6692526
25
140_C13H10O2_7-8-19-17 (45,) energy =    -651.8427364
C           0.6344173     0.6643908    -0.4881113
O           1.5512588     1.4533324    -1.1184005
H           1.1205989     2.2788385    -1.3911571
C          -0.6927176     1.0847557    -0.3287419
H          -0.9869106     2.0681480    -0.6922231
C          -1.6297772     0.2523257     0.2761719
H          -2.6530355     0.5984700     0.3946743
C           1.0312794    -0.6093936    -0.0300705
C           2.4118457    -1.1831072    -0.1725977
C          -1.2587980    -1.0207568     0.7173479
H          -1.9881075    -1.6768270     1.1824512
C           6.0267713     1.1158038     0.1012055
H           6.9575975     1.6706302     0.1857725
C           4.9635753     1.3992885     0.9611728
H           5.0688918     2.1667564     1.7234155
C           0.0561392    -1.4384172     0.5493698
H           0.3704871    -2.4276088     0.8664812
C           3.7651355     0.6967247     0.8439807
H           2.9355789     0.9209050     1.5090773
C           3.6253083    -0.3043096    -0.1261841
C           4.7096350    -0.6108905    -0.9593912
H           4.6065872    -1.4183785    -1.6775936
C           5.8963743     0.1117863    -0.8621849
H           6.7253803    -0.1160838    -1.5268903
O           2.5492442    -2.3924734    -0.3182916
25
140_C13H10O2_7-8-19-17 (60,) energy =    -651.8405235
C           0.6554840     0.6406901    -0.4459762
O           1.6099933     1.4400034    -1.0000387
H           1.1924504     2.2597642    -1.3086292
C          -0.6844792     1.0495889    -0.3976193
H          -0.9557171     2.0284924    -0.7899435
C          -1.6604448     0.2143384     0.1361785
H          -2.6926661     0.5526832     0.1679720
C           1.0242257    -0.6281118     0.0510457
C           2.4136952    -1.1925496     0.0351513
C          -1.3157049    -1.0512340     0.6200136
H          -2.0747462    -1.7086504     1.0326746
C           6.0309750     1.1238423     0.0078812
H           6.9642170     1.6808404     0.0176909
C           5.0713309     1.3508336     0.9965163
H           5.2597569     2.0762586     1.7836114
C           0.0112391    -1.4574793     0.5640510
H           0.3102891    -2.4384377     0.9188710
C           3.8688984     0.6449390     0.9774556
H           3.1180448     0.8279319     1.7419399
C           3.6216051    -0.3003376    -0.0255768
C           4.6051298    -0.5547513    -0.9893210
H           4.4287617    -1.3234927    -1.7357687
C           5.7941662     0.1721969    -0.9871350
H           6.5435883    -0.0147405    -1.7517113
O           2.5758650    -2.4069644     0.0588452
25
140_C13H10O2_7-8-19-17 (75,) energy =    -651.8382611
C           0.6819534     0.6333307    -0.4096543
O           1.6659142     1.4522526    -0.8735683
H           1.2620745     2.2657704    -1.2154690
C          -0.6638938     1.0206721    -0.4808286
H          -0.9142432     1.9943568    -0.8991434
C          -1.6697980     0.1735449    -0.0289243
H          -2.7059733     0.4953511    -0.0904923
C           1.0256837    -0.6280864     0.1249490
C           2.4172844    -1.1700522     0.2483001
C          -1.3490687    -1.0826488     0.4954158
H          -2.1309579    -1.7488150     0.8468549
C           6.0338929     1.1366604    -0.0792439
H           6.9658173     1.6915821    -0.1482348
C           5.1991003     1.3048249     1.0270811
H           5.4828454     1.9847717     1.8261838
C          -0.0167842    -1.4666036     0.5606658
H           0.2676453    -2.4369979     0.9540800
C           3.9996750     0.5978190     1.1127156
H           3.3485431     0.7344941     1.9725299
C           3.6289774    -0.2860218     0.0931314
C           4.4839948    -0.4773254    -0.9978871
H           4.2148604    -1.1925730    -1.7700330
C           5.6727869     0.2454153    -1.0919546
H           6.3244436     0.1024441    -1.9499780
O           2.5908342    -2.3633262     0.4634185
25
140_C13H10O2_7-8-19-17 (90,) energy =    -651.8370733
C           0.7041178     0.6423355    -0.3390571
O           1.7020934     1.5057315    -0.6718975
H           1.3087974     2.3129875    -1.0401091
C          -0.6384205     0.9908444    -0.5480133
H          -0.8725106     1.9633082    -0.9784440
C          -1.6603034     0.1100724    -0.2127166
H          -2.6933321     0.4014271    -0.3829930
C           1.0283729    -0.6153354     0.2175942
C           2.4123101    -1.1201548     0.4929523
C          -1.3587843    -1.1396932     0.3383381
H          -2.1528380    -1.8316044     0.6017461
C           6.0257137     1.1239706    -0.1835805
H           6.9527489     1.6680254    -0.3439673
C           5.3359453     1.2556464     1.0230690
H           5.7259866     1.9000398     1.8067052
C          -0.0304011    -1.4836425     0.5439223
H           0.2408508    -2.4447756     0.9678789
C           4.1464825     0.5569332     1.2305639
H           3.6132741     0.6583440     2.1722997
C           3.6380101    -0.2773416     0.2296788
C           4.3364781    -0.4170236    -0.9740272
H           3.9524694    -1.0767717    -1.7476364
C           5.5239786     0.2852386    -1.1805545
H           6.0606319     0.1720141    -2.1189747
O           2.5731757    -2.2485917     0.9408339
25
140_C13H10O2_7-8-19-17 (105,) energy =    -651.8376953
C           0.7156222     0.6719168    -0.2759371
O           1.7020799     1.5907404    -0.4650465
H           1.3144937     2.3913684    -0.8531204
C          -0.6103891     0.9677496    -0.6243224
H          -0.8395111     1.9387782    -1.0606361
C          -1.6233497     0.0390138    -0.4137417
H          -2.6432089     0.2887832    -0.6939618
C           1.0322180    -0.5810381     0.2950935
C           2.3979196    -1.0299749     0.7208057
C          -1.3302417    -1.2036055     0.1571209
H          -2.1174848    -1.9319004     0.3258907
C           6.0012750     1.0984087    -0.2914172
H           6.9206971     1.6224512    -0.5388425
C           5.4617222     1.1991216     0.9925013
H           5.9592686     1.8027898     1.7470846
C          -0.0184287    -1.4937287     0.5048553
H           0.2440839    -2.4451899     0.9553936
C           4.2863441     0.5204919     1.3138899
H           3.8733325     0.5866790     2.3166905
C           3.6384444    -0.2567943     0.3482680
C           4.1738820    -0.3471173    -0.9408580
H           3.6683174    -0.9438582    -1.6959170
C           5.3576235     0.3203478    -1.2556968
H           5.7758440     0.2346418    -2.2552948
O           2.5225680    -2.0412596     1.4006677
25
140_C13H10O2_7-8-19-17 (120,) energy =    -651.8397277
C           0.6987365     0.6977032    -0.2384822
O           1.6530288     1.6657040    -0.3284076
H           1.2634515     2.4525581    -0.7415362
C          -0.6054305     0.9319808    -0.6966684
H          -0.8445366     1.8935558    -1.1482875
C          -1.5870768    -0.0452529    -0.5702722
H          -2.5903424     0.1559421    -0.9362756
C           1.0252172    -0.5405103     0.3564201
C           2.3703593    -0.9146243     0.9055725
C          -1.2854860    -1.2718114     0.0290848
H          -2.0492939    -2.0360491     0.1347688
C           5.9930462     1.0321438    -0.3510100
H           6.9158524     1.5160406    -0.6601428
C           5.5846548     1.0917553     0.9832463
H           6.1867865     1.6253116     1.7139607
C           0.0048808    -1.4993592     0.4891211
H           0.2690324    -2.4354328     0.9702631
C           4.4075130     0.4605319     1.3831716
H           4.0948446     0.4836970     2.4230451
C           3.6229106    -0.2211595     0.4461558
C           4.0222757    -0.2587591    -0.8948108
H           3.4049803    -0.7724240    -1.6275248
C           5.2135835     0.3499389    -1.2878979
H           5.5301628     0.2983996    -2.3263913
O           2.4546118    -1.7894495     1.7594430
25
140_C13H10O2_7-8-19-17 (135,) energy =    -651.8420503
C           0.6606222     0.7274357    -0.2278180
O           1.5699807     1.7429327    -0.2607276
H           1.1695478     2.5084398    -0.7023088
C          -0.6222660     0.8892831    -0.7681705
H          -0.8833242     1.8332361    -1.2441306
C          -1.5581378    -0.1375680    -0.6887512
H          -2.5459451     0.0062978    -1.1182473
C           1.0137472    -0.4860389     0.3992730
C           2.3408976    -0.7718493     1.0416900
C          -1.2320036    -1.3387202    -0.0531387
H          -1.9609571    -2.1400506     0.0185909
C           6.0110304     0.9441682    -0.3863916
H           6.9472277     1.3703449    -0.7375336
C           5.7096040     0.9476937     0.9778094
H           6.4083596     1.3802893     1.6888869
C           0.0377917    -1.4930666     0.4900313
H           0.3154777    -2.4076623     1.0040565
C           4.5154637     0.3894682     1.4298047
H           4.2790508     0.3628520     2.4891392
C           3.6041146    -0.1573814     0.5175864
C           3.9001835    -0.1377287    -0.8511802
H           3.1889901    -0.5502971    -1.5618728
C           5.1084473     0.3935150    -1.2993111
H           5.3432958     0.3851283    -2.3604267
O           2.3915837    -1.5184014     2.0125886
25
140_C13H10O2_7-8-19-17 (150,) energy =    -651.8437901
C           0.6067727     0.7624781    -0.2292525
O           1.4621036     1.8260063    -0.2311114
H           1.0437685     2.5651628    -0.6999166
C          -0.6548385     0.8439264    -0.8323339
H          -0.9471821     1.7646039    -1.3349422
C          -1.5331809    -0.2349375    -0.7791176
H          -2.5059806    -0.1548815    -1.2567253
C           0.9986368    -0.4190655     0.4321279
C           2.3081596    -0.6061529     1.1473972
C          -1.1702220    -1.4047288    -0.1071217
H          -1.8556053    -2.2450348    -0.0543225
C           6.0404966     0.8418399    -0.4065906
H           6.9945037     1.1962238    -0.7883693
C           5.8188678     0.7794040     0.9720029
H           6.5984381     1.0878154     1.6634523
C           0.0789970    -1.4778084     0.4996688
H           0.3795278    -2.3669078     1.0449170
C           4.6008062     0.3140740     1.4607746
H           4.4190853     0.2358966     2.5279816
C           3.5837375    -0.0702407     0.5755301
C           3.8074917     0.0072644    -0.8056053
H           3.0240761    -0.2926241    -1.4955787
C           5.0364847     0.4475883    -1.2939684
H           5.2102153     0.4874737    -2.3660146
O           2.3285731    -1.2334972     2.2004915
25
140_C13H10O2_7-8-19-17 (165,) energy =    -651.8443793
C           0.5437395     0.8041563    -0.2380326
O           1.3373942     1.9162528    -0.2224527
H           0.8951254     2.6261802    -0.7137123
C          -0.6955135     0.7986511    -0.8893233
H          -1.0261786     1.6917819    -1.4171936
C          -1.5054938    -0.3338422    -0.8503914
H          -2.4626983    -0.3231024    -1.3646001
C           0.9840911    -0.3398053     0.4551603
C           2.2738965    -0.4197248     1.2285391
C          -1.0954539    -1.4674234    -0.1453171
H          -1.7285721    -2.3483353    -0.1024925
C           6.0695112     0.7273047    -0.4232863
H           7.0401619     1.0009370    -0.8288441
C           5.9018129     0.5905304     0.9579858
H           6.7410345     0.7581435     1.6277129
C           0.1320408    -1.4526125     0.5104622
H           0.4629556    -2.3131582     1.0834974
C           4.6608807     0.2313374     1.4753345
H           4.5136247     0.1005411     2.5424348
C           3.5665083     0.0274447     0.6206609
C           3.7431275     0.1652448    -0.7632414
H           2.9087564    -0.0115494    -1.4342135
C           4.9909036     0.5070602    -1.2823737
H           5.1222300     0.6009656    -2.3570302
O           2.2609069    -0.9227049     2.3462843
25
140_C13H10O2_7-8-19-17 (180,) energy =    -651.8437264
C           0.4744484     0.8481778    -0.2561280
O           1.2002973     2.0076822    -0.2391427
H           0.7260252     2.6850381    -0.7461311
C          -0.7430488     0.7512460    -0.9390145
H          -1.1184303     1.6116865    -1.4906935
C          -1.4761080    -0.4331416    -0.9005681
H          -2.4182142    -0.4952505    -1.4383804
C           0.9716669    -0.2513134     0.4666925
C           2.2408971    -0.2195318     1.2816058
C          -1.0094818    -1.5246128    -0.1658520
H          -1.5835429    -2.4451064    -0.1228178
C           6.0935110     0.6060377    -0.4347321
H           7.0777920     0.7940391    -0.8558764
C           5.9505533     0.3832196     0.9382461
H           6.8230808     0.3953858     1.5859112
C           0.1967421    -1.4175996     0.5221674
H           0.5655291    -2.2460630     1.1191856
C           4.6908693     0.1371851     1.4746126
H           4.5575736    -0.0510495     2.5347701
C           3.5535529     0.1288063     0.6504867
C           3.7084074     0.3381271    -0.7275821
H           2.8446520     0.3028688    -1.3817002
C           4.9720381     0.5777415    -1.2657989
H           5.0821509     0.7371883    -2.3350726
O           2.1935178    -0.5895325     2.4486424
