19
376_C8H9NO_3-0-7-13 (-165,) energy =    -440.2487108
C           1.2457824    -0.7225487     0.0771583
H           1.5529298    -0.6650496     1.1269463
H           0.8935058     0.2920960    -0.1623534
C           0.1406657    -1.7549457    -0.1406861
H          -0.1573724    -1.7982309    -1.1920271
H          -0.7393651    -1.5065869     0.4617105
H           0.4779422    -2.7570743     0.1441928
C           2.4750470    -0.9836015    -0.7759312
C           6.0543750     1.0502582     0.2408614
H           6.9439630     1.5945220     0.5437313
C           4.8593666     1.2081998     0.9475755
H           4.8103394     1.8774863     1.8049118
N           3.7282379     0.5698985     0.6347008
C           3.7535778    -0.2632082    -0.4188210
C           4.8999998    -0.4864115    -1.1912686
H           4.8428381    -1.1723175    -2.0290545
C           6.0720745     0.1832019    -0.8519038
H           6.9818246     0.0335025    -1.4270320
O           2.4588052    -1.7501396    -1.7267119
19
376_C8H9NO_3-0-7-13 (-150,) energy =    -440.2478607
C           1.1831681    -0.6265932    -0.0157033
H           1.4810121    -0.3469815     0.9979264
H           0.7043637     0.2699928    -0.4394858
C           0.2071319    -1.8055737    -0.0271956
H          -0.0567221    -2.0835436    -1.0511598
H          -0.7094779    -1.5508521     0.5148297
H           0.6499671    -2.6857584     0.4519136
C           2.4246425    -0.8892554    -0.8534962
C           6.0653545     0.9643058     0.2899956
H           6.9717089     1.4596028     0.6254957
C           4.8740684     1.1210316     1.0027900
H           4.8448723     1.7401714     1.8978618
N           3.7230523     0.5409082     0.6512956
C           3.7228444    -0.2301033    -0.4487356
C           4.8645936    -0.4462259    -1.2309853
H           4.7878410    -1.0801768    -2.1071993
C           6.0572093     0.1624062    -0.8516618
H           6.9632286     0.0158010    -1.4334428
O           2.3997939    -1.6120225    -1.8381005
19
376_C8H9NO_3-0-7-13 (-135,) energy =    -440.2471126
C           1.1318653    -0.5445878    -0.1217855
H           1.3989554    -0.0918203     0.8348750
H           0.5329604     0.1975949    -0.6698453
C           0.3157861    -1.8309649     0.0619394
H           0.0919051    -2.2862706    -0.9067854
H          -0.6270923    -1.6177359     0.5760515
H           0.8671260    -2.5646634     0.6607994
C           2.3851474    -0.7833191    -0.9508277
C           6.0650865     0.8822929     0.3476527
H           6.9818428     1.3279199     0.7222160
C           4.8667259     1.0477898     1.0460724
H           4.8417119     1.6240304     1.9694232
N           3.7027461     0.5277642     0.6462127
C           3.6957242    -0.1891889    -0.4897066
C           4.8448839    -0.4096145    -1.2606957
H           4.7630392    -0.9981705    -2.1675222
C           6.0504545     0.1365054    -0.8315600
H           6.9618312    -0.0149676    -1.4036009
O           2.3562716    -1.4474045    -1.9762377
19
376_C8H9NO_3-0-7-13 (-120,) energy =    -440.2467108
C           1.0894446    -0.4737167    -0.2454931
H           1.3085700     0.1270790     0.6385922
H           0.3936327     0.0909233    -0.8798635
C           0.4482956    -1.8177357     0.1389767
H           0.2672119    -2.4242924    -0.7533641
H          -0.5060580    -1.6546145     0.6503185
H           1.0977810    -2.3869061     0.8136934
C           2.3523384    -0.6862988    -1.0659911
C           6.0508668     0.7889082     0.3988573
H           6.9721788     1.1844676     0.8160575
C           4.8433327     0.9492041     1.0825191
H           4.8161556     1.4707247     2.0377724
N           3.6729841     0.4907323     0.6293540
C           3.6692554    -0.1587012    -0.5465350
C           4.8279781    -0.3703499    -1.3057277
H           4.7485218    -0.9043311    -2.2459328
C           6.0394226     0.1137265    -0.8222358
H           6.9579327    -0.0316550    -1.3843605
O           2.3241649    -1.2883612    -2.1291648
19
376_C8H9NO_3-0-7-13 (-105,) energy =    -440.2467390
C           1.0414314    -0.4425665    -0.3519334
H           1.1967832     0.3036914     0.4291067
H           0.2738751    -0.0820472    -1.0462882
C           0.5822166    -1.7779875     0.2636278
H           0.4449588    -2.5332496    -0.5166581
H          -0.3683720    -1.6478227     0.7912761
H           1.3173350    -2.1551309     0.9833619
C           2.3114793    -0.6370578    -1.1629077
C           6.0013379     0.6967781     0.4497383
H           6.9195388     1.0551381     0.9056238
C           4.7833565     0.8326502     1.1202302
H           4.7451611     1.2966106     2.1043707
N           3.6157531     0.4193413     0.6190528
C           3.6263864    -0.1599923    -0.5930779
C           4.7963089    -0.3450569    -1.3414488
H           4.7280875    -0.8242006    -2.3116422
C           6.0043103     0.0944732    -0.8089058
H           6.9313222    -0.0298242    -1.3620678
O           2.2923011    -1.1918611    -2.2516019
19
376_C8H9NO_3-0-7-13 (-90,) energy =    -440.2470816
C           1.0059942    -0.4390035    -0.4604811
H           1.0830186     0.4215518     0.2083333
H           0.1921774    -0.2750054    -1.1740585
C           0.7260932    -1.7120019     0.3625517
H           0.6672378    -2.5906273    -0.2884826
H          -0.2256681    -1.6167511     0.8957118
H           1.5136091    -1.8806222     1.1043602
C           2.2805092    -0.5908463    -1.2710096
C           5.9447445     0.6070199     0.4968989
H           6.8548980     0.9295995     0.9937785
C           4.7128004     0.7141469     1.1470881
H           4.6559212     1.1194526     2.1559232
N           3.5537771     0.3417519     0.5963843
C           3.5884220    -0.1648187    -0.6476579
C           4.7731571    -0.3168174    -1.3791326
H           4.7227819    -0.7369583    -2.3773846
C           5.9722286     0.0795768    -0.7945255
H           6.9107758    -0.0205329    -1.3329736
O           2.2745967    -1.0697401    -2.3950212
19
376_C8H9NO_3-0-7-13 (-75,) energy =    -440.2471230
C           0.9769285    -0.4570606    -0.5312068
H           0.9543144     0.4807721     0.0336984
H           0.1453253    -0.4670483    -1.2420361
C           0.8566763    -1.6375814     0.4520682
H           0.9008278    -2.5964702    -0.0763440
H          -0.1013258    -1.5887886     0.9806474
H           1.6581111    -1.6096752     1.1951675
C           2.2535481    -0.5223847    -1.3501659
C           5.9068838     0.5215398     0.5342632
H           6.8132330     0.8053644     1.0608343
C           4.6654586     0.6228839     1.1673168
H           4.5968947     0.9867498     2.1911198
N           3.5105878     0.2927732     0.5821632
C           3.5588287    -0.1593379    -0.6824604
C           4.7530274    -0.2963388    -1.4009248
H           4.7127702    -0.6656240    -2.4195397
C           5.9484351     0.0507643    -0.7783611
H           6.8945053    -0.0423957    -1.3047519
O           2.2541976    -0.8804381    -2.5181774
19
376_C8H9NO_3-0-7-13 (-60,) energy =    -440.2461015
C           0.9468992    -0.5087072    -0.5937935
H           0.7864926     0.4680497    -0.1186719
H           0.1373999    -0.6779393    -1.3097206
C           0.9522973    -1.5903794     0.5016742
H           1.1488661    -2.5829826     0.0798055
H          -0.0272339    -1.6266282     0.9906757
H           1.7082287    -1.3758368     1.2592794
C           2.2280765    -0.4360708    -1.4083188
C           5.8857113     0.4486577     0.5497623
H           6.7931945     0.6941101     1.0933762
C           4.6397608     0.5769359     1.1686210
H           4.5679307     0.9274757     2.1968471
N           3.4834215     0.2880469     0.5646780
C           3.5338613    -0.1410356    -0.7079568
C           4.7324463    -0.2933250    -1.4162113
H           4.6948393    -0.6316370    -2.4455724
C           5.9298062     0.0020569    -0.7711012
H           6.8792152    -0.1098291    -1.2877179
O           2.2305556    -0.6320905    -2.6142439
19
376_C8H9NO_3-0-7-13 (-45,) energy =    -440.2441192
C           0.9314798    -0.5745733    -0.6653737
H           0.6077622     0.4114667    -0.2999513
H           0.1897166    -0.9033511    -1.3993954
C           1.0044881    -1.5362314     0.5316413
H           1.3894696    -2.5187352     0.2332227
H          -0.0002379    -1.6883499     0.9411563
H           1.6463502    -1.1374464     1.3175987
C           2.2182974    -0.3570803    -1.4505129
C           5.8934600     0.3806897     0.5377112
H           6.8067676     0.5893067     1.0869244
C           4.6508674     0.5248240     1.1591415
H           4.5874471     0.8545892     2.1947496
N           3.4877633     0.2755606     0.5500184
C           3.5272396    -0.1223778    -0.7328813
C           4.7223393    -0.2799103    -1.4466772
H           4.6780852    -0.5829889    -2.4866260
C           5.9265227    -0.0330662    -0.7940902
H           6.8728029    -0.1548846    -1.3141750
O           2.2168663    -0.3897740    -2.6720007
19
376_C8H9NO_3-0-7-13 (-30,) energy =    -440.2418428
C           0.9202419    -0.6470520    -0.7008333
H           0.4258296     0.3137755    -0.4887265
H           0.2923442    -1.1468897    -1.4457245
C           1.0006068    -1.4568005     0.6000118
H           1.5418192    -2.3993882     0.4542648
H          -0.0121430    -1.7091874     0.9340613
H           1.5038167    -0.8960492     1.3871155
C           2.2101390    -0.3037547    -1.4426173
C           5.9087369     0.3235443     0.5425958
H           6.8296622     0.5023493     1.0895996
C           4.6744164     0.4485148     1.1835762
H           4.6241234     0.7353211     2.2326159
N           3.5027839     0.2306237     0.5784257
C           3.5238282    -0.1110772    -0.7205241
C           4.7103949    -0.2414902    -1.4549810
H           4.6535101    -0.4952086    -2.5073858
C           5.9234528    -0.0317941    -0.8063602
H           6.8626643    -0.1363294    -1.3427444
O           2.1986995    -0.2037432    -2.6606020
19
376_C8H9NO_3-0-7-13 (-15,) energy =    -440.2399616
C           0.9306230    -0.7180054    -0.7223222
H           0.2953329     0.1805245    -0.7252556
H           0.4523526    -1.4021452    -1.4333022
C           0.9458362    -1.3222052     0.6857997
H           1.6162154    -2.1866213     0.7489976
H          -0.0636538    -1.6682121     0.9374269
H           1.2694434    -0.5997285     1.4343606
C           2.2268794    -0.2984949    -1.4206767
C           5.9418701     0.2462462     0.5605911
H           6.8682047     0.3979130     1.1066977
C           4.7165472     0.2850393     1.2288661
H           4.6784899     0.4765082     2.2999699
N           3.5396143     0.0941697     0.6250735
C           3.5441191    -0.1311588    -0.6983827
C           4.7211623    -0.1698995    -1.4598551
H           4.6517125    -0.3336056    -2.5291055
C           5.9402802     0.0112831    -0.8146390
H           6.8718506    -0.0237484    -1.3729627
O           2.2063393    -0.1157999    -2.6291868
19
376_C8H9NO_3-0-7-13 (0,) energy =    -440.2390570
C           0.9694926    -0.8766363    -0.7297565
H           0.2640684    -0.1214565    -1.1030327
H           0.6568031    -1.8071070    -1.2234393
C           0.8158530    -1.0208593     0.7870576
H           1.4538280    -1.8083628     1.1934335
H          -0.2283201    -1.2750574     1.0080844
H           1.0630235    -0.0983028     1.3165390
C           2.2939893    -0.5183254    -1.4148910
C           5.9816460     0.1991464     0.5701564
H           6.9039307     0.3740809     1.1162313
C           4.8123288    -0.1397379     1.2535179
H           4.8149933    -0.2318123     2.3384466
N           3.6432192    -0.3684333     0.6483929
C           3.5967273    -0.2658951    -0.6887456
C           4.7187628     0.0687292    -1.4626704
H           4.6111962     0.1335731    -2.5390425
C           5.9293228     0.3048777    -0.8201225
H           6.8163206     0.5663118    -1.3908500
O           2.2909733    -0.4299776    -2.6348555
19
376_C8H9NO_3-0-7-13 (15,) energy =    -440.2399614
C           1.0000921    -1.0163026    -0.7477576
H           0.2480966    -0.5110122    -1.3653761
H           0.8199480    -2.0901693    -0.9067180
C           0.7974169    -0.6834062     0.7342278
H           1.4276943    -1.2959549     1.3781173
H          -0.2531382    -0.8530337     0.9982370
H           1.0264106     0.3662953     0.9492513
C           2.3253642    -0.7201812    -1.4549970
C           5.9720321     0.1197724     0.5497910
H           6.8898880     0.3075434     1.0989736
C           4.9084418    -0.5450628     1.1633296
H           4.9934578    -0.8884003     2.1930236
N           3.7460388    -0.7986258     0.5545982
C           3.6078752    -0.4027341    -0.7207017
C           4.6248723     0.2548643    -1.4278569
H           4.4547360     0.5265400    -2.4632884
C           5.8225999     0.5293291    -0.7754827
H           6.6270252     1.0471209    -1.2908494
O           2.3452530    -0.7112232    -2.6772366
19
376_C8H9NO_3-0-7-13 (30,) energy =    -440.2418429
C           1.4124664    -1.7921034     0.2871242
H           0.9717333    -2.7263364    -0.0761348
H           1.3140522    -1.8211495     1.3835184
C           0.6521133    -0.5694129    -0.2431358
H           0.9981054     0.3496676     0.2288761
H          -0.4182168    -0.6919835    -0.0423567
H           0.7715474    -0.4608840    -1.3278370
C           2.9052944    -1.9228382    -0.0066417
C           5.4712898     1.4323278    -0.4215129
H           6.0993905     2.3151944    -0.4945734
C           4.2541722     1.4890698     0.2607282
H           3.9296316     2.4147981     0.7329072
N           3.4245303     0.4478556     0.3789473
C           3.7982912    -0.7156648    -0.1786425
C           5.0092096    -0.8775032    -0.8656020
H           5.2603110    -1.8517461    -1.2693025
C           5.8531122     0.2208620    -0.9983298
H           6.7939174     0.1336764    -1.5350137
O           3.4011533    -3.0325437    -0.1341059
19
376_C8H9NO_3-0-7-13 (45,) energy =    -440.2441190
C           1.4378700    -1.7561008     0.3557649
H           0.9684787    -2.7308024     0.1922338
H           1.4326345    -1.5742375     1.4408815
C           0.6491876    -0.6287087    -0.3297043
H           1.0444167     0.3499677    -0.0563061
H          -0.4024297    -0.6806715    -0.0268498
H           0.6812854    -0.7241083    -1.4217009
C           2.8933379    -1.9259907    -0.0594723
C           5.4837581     1.4210549    -0.3646076
H           6.1171703     2.3021098    -0.4075672
C           4.2752143     1.4562375     0.3347871
H           3.9628684     2.3638149     0.8485676
N           3.4412344     0.4154874     0.4206280
C           3.8008622    -0.7250842    -0.1921220
C           4.9997469    -0.8641440    -0.9033995
H           5.2361239    -1.8211904    -1.3545178
C           5.8499898     0.2335587    -0.9983661
H           6.7832403     0.1642545    -1.5506284
O           3.3447601    -3.0329310    -0.3124185
19
376_C8H9NO_3-0-7-13 (60,) energy =    -440.2461014
C           1.4503155    -1.6856885     0.4232032
H           0.9829791    -2.6746195     0.4334015
H           1.5349268    -1.3351634     1.4602612
C           0.5952409    -0.6773467    -0.3655507
H           1.0207305     0.3261445    -0.3070686
H          -0.4184430    -0.6481387     0.0485858
H           0.5139287    -0.9640302    -1.4205735
C           2.8531368    -1.8826903    -0.1276173
C           5.5005788     1.4275527    -0.2976551
H           6.1460775     2.3008043    -0.3056419
C           4.2836834     1.4593165     0.3879286
H           3.9753827     2.3562658     0.9224431
N           3.4371969     0.4266033     0.4360671
C           3.7894107    -0.6996124    -0.2071611
C           4.9912825    -0.8322177    -0.9137926
H           5.2144575    -1.7765557    -1.3973863
C           5.8586718     0.2551232    -0.9634196
H           6.7973199     0.1901591    -1.5070272
O           3.2351391    -2.9718560    -0.5281744
19
376_C8H9NO_3-0-7-13 (75,) energy =    -440.2471232
C           1.4724229    -1.6165780     0.4709927
H           1.0493367    -2.6119274     0.6359287
H           1.6210697    -1.1253436     1.4383174
C           0.5160192    -0.7622886    -0.3837122
H           0.9086442     0.2495879    -0.5150858
H          -0.4604138    -0.6889355     0.1069258
H           0.3632641    -1.2108928    -1.3716549
C           2.8169428    -1.8185518    -0.2042575
C           5.5536813     1.4217111    -0.2416078
H           6.2205962     2.2784314    -0.2176479
C           4.3246820     1.4683472     0.4213358
H           4.0267146     2.3622993     0.9666108
N           3.4554542     0.4537358     0.4350690
C           3.7926109    -0.6657230    -0.2276465
C           5.0004273    -0.8093702    -0.9216300
H           5.2046035    -1.7443855    -1.4311666
C           5.8957994     0.2561613    -0.9276998
H           6.8425777     0.1808812    -1.4556609
O           3.1170472    -2.8724722    -0.7443224
19
376_C8H9NO_3-0-7-13 (90,) energy =    -440.2470815
C           1.4770153    -1.5412169     0.4893317
H           1.1414230    -2.5341594     0.8052462
H           1.6374483    -0.9137907     1.3693418
C           0.4107753    -0.8974732    -0.4189924
H           0.7120324     0.1099596    -0.7242781
H          -0.5427891    -0.8183005     0.1135765
H           0.2511472    -1.5008040    -1.3188797
C           2.7808655    -1.7342242    -0.2637153
C           5.6343557     1.4026887    -0.1842941
H           6.3315425     2.2336342    -0.1313926
C           4.4081583     1.4694542     0.4819332
H           4.1417019     2.3546419     1.0569901
N           3.5049684     0.4849323     0.4644300
C           3.8015351    -0.6214312    -0.2380550
C           5.0012674    -0.7813072    -0.9429148
H           5.1689055    -1.7019105    -1.4905909
C           5.9344952     0.2505829    -0.9117909
H           6.8775505     0.1607525    -1.4441309
O           3.0090858    -2.7488311    -0.9050282
19
376_C8H9NO_3-0-7-13 (105,) energy =    -440.2467392
C           1.4634387    -1.4263458     0.4939828
H           1.2389108    -2.3843664     0.9767159
H           1.5993118    -0.6619856     1.2610251
C           0.3024704    -1.0464162    -0.4445522
H           0.4835969    -0.0787852    -0.9257411
H          -0.6339401    -0.9717776     0.1180579
H           0.1778184    -1.8021972    -1.2264557
C           2.7465237    -1.6218605    -0.2959089
C           5.7360813     1.3831717    -0.1322254
H           6.4698579     2.1802214    -0.0572547
C           4.5260532     1.4739953     0.5599327
H           4.3084758     2.3436847     1.1776379
N           3.5802005     0.5311934     0.5178632
C           3.8144484    -0.5553523    -0.2368160
C           4.9942510    -0.7363380    -0.9705285
H           5.1117059    -1.6383421    -1.5605193
C           5.9724639     0.2515426    -0.9135928
H           6.9012261     0.1439463    -1.4673285
O           2.9191891    -2.6096199    -0.9944410
19
376_C8H9NO_3-0-7-13 (120,) energy =    -440.2467108
C           1.4502750    -1.3087076     0.4681007
H           1.3460765    -2.1849319     1.1213912
H           1.5402937    -0.4226097     1.0984156
C           0.2226834    -1.2145688    -0.4536062
H           0.2716356    -0.3217798    -1.0872717
H          -0.6969141    -1.1562569     0.1378393
H           0.1645596    -2.0924136    -1.1039770
C           2.7234661    -1.5153523    -0.3378936
C           5.8345759     1.3574041    -0.0751813
H           6.6010984     2.1200678     0.0254642
C           4.6380319     1.4642922     0.6376234
H           4.4642597     2.3118591     1.2984305
N           3.6530022     0.5645481     0.5638899
C           3.8330408    -0.4944959    -0.2426697
C           4.9969337    -0.6898850    -0.9983155
H           5.0715752    -1.5687349    -1.6287871
C           6.0148641     0.2544775    -0.9107140
H           6.9315211     0.1352955    -1.4819494
O           2.8593312    -2.4829985    -1.0719385
19
376_C8H9NO_3-0-7-13 (135,) energy =    -440.2471128
C           1.4292296    -1.1911911     0.4100419
H           1.4480369    -1.9484604     1.2075737
H           1.4649742    -0.2157101     0.8986206
C           0.1588737    -1.3621568    -0.4334023
H           0.0837788    -0.5777553    -1.1949647
H          -0.7330489    -1.3032842     0.1989097
H           0.1633707    -2.3289800    -0.9443737
C           2.6893310    -1.4040899    -0.4157566
C           5.9105363     1.3268681    -0.0039471
H           6.7058769     2.0530493     0.1354701
C           4.7150594     1.4471617     0.7085528
H           4.5715613     2.2685259     1.4085541
N           3.6948850     0.5929938     0.5868035
C           3.8375940    -0.4329818    -0.2683602
C           4.9979951    -0.6396194    -1.0262164
H           5.0419685    -1.4910275    -1.6959840
C           6.0519298     0.2584889    -0.8902113
H           6.9664461     0.1299783    -1.4628605
O           2.7913451    -2.3381896    -1.1969959
19
376_C8H9NO_3-0-7-13 (150,) energy =    -440.2478611
C           1.3782606    -1.0595246     0.3364482
H           1.5085158    -1.6542728     1.2539722
H           1.3526076    -0.0176870     0.6657898
C           0.0918439    -1.4685139    -0.3850436
H          -0.0824257    -0.8372164    -1.2633628
H          -0.7711111    -1.3668497     0.2811516
H           0.1495280    -2.5049062    -0.7285080
C           2.6200168    -1.2906320    -0.5099708
C           5.9599648     1.2626277     0.0595032
H           6.7860834     1.9437054     0.2411121
C           4.7647872     1.4023692     0.7692276
H           4.6521082     2.1929605     1.5092126
N           3.7073810     0.6042227     0.5963926
C           3.8111388    -0.3828355    -0.3088190
C           4.9676393    -0.6057063    -1.0672618
H           4.9787960    -1.4240390    -1.7783868
C           6.0604895     0.2348649    -0.8786878
H           6.9734597     0.0929408    -1.4506517
O           2.6794399    -2.1835971    -1.3416583
19
376_C8H9NO_3-0-7-13 (165,) energy =    -440.2487108
C           1.3556013    -0.9475235     0.2427900
H           1.5695554    -1.3262786     1.2536261
H           1.2333990     0.1328202     0.3754173
C           0.1004714    -1.5995241    -0.3352147
H          -0.1381410    -1.1864394    -1.3209122
H          -0.7574465    -1.4289385     0.3234874
H           0.2367314    -2.6776382    -0.4581809
C           2.5935751    -1.1975162    -0.6009175
C           6.0046813     1.2125012     0.1330317
H           6.8493116     1.8563109     0.3598246
C           4.8087995     1.3457485     0.8433018
H           4.7142929     2.0935876     1.6289138
N           3.7294353     0.5917447     0.6169032
C           3.8117654    -0.3420423    -0.3453789
C           4.9657512    -0.5546483    -1.1095259
H           4.9582334    -1.3294420    -1.8680072
C           6.0816356     0.2403414    -0.8645772
H           6.9942009     0.1056852    -1.4389415
O           2.6295517    -2.0564382    -1.4685613
19
376_C8H9NO_3-0-7-13 (180,) energy =    -440.2490996
C           1.3031541    -0.8321427     0.1601799
H           1.5817041    -0.9968396     1.2096511
H           1.0740368     0.2406060     0.1088850
C           0.1037646    -1.6854107    -0.2458415
H          -0.1892429    -1.4876574    -1.2815754
H          -0.7532220    -1.4731308     0.4019165
H           0.3360280    -2.7522923    -0.1731431
C           2.5311821    -1.0892934    -0.6943467
C           6.0330369     1.1325529     0.1886788
H           6.9019350     1.7268396     0.4554892
C           4.8352135     1.2818728     0.8926636
H           4.7642850     1.9944052     1.7128118
N           3.7280515     0.5855515     0.6203595
C           3.7824565    -0.3021515    -0.3865058
C           4.9343653    -0.5242271    -1.1506051
H           4.9010936    -1.2579920    -1.9481991
C           6.0805428     0.2084112    -0.8552040
H           6.9933836     0.0629361    -1.4265022
O           2.5350081    -1.9013901    -1.6065046
