19
376_C8H9NO_0-7-13-12 (-165,) energy =    -440.2385771
C           1.6880439    -1.5921912    -0.1266737
H           2.2867639    -2.3520908    -0.6503707
H           1.9588659    -1.6872290     0.9344982
C           0.1978039    -1.8538951    -0.3374304
H          -0.4080170    -1.1171191     0.1982661
H          -0.0708032    -2.8525809     0.0223730
H          -0.0654602    -1.7819437    -1.3963745
C           2.1206542    -0.2114451    -0.6167215
C           6.1090380     1.1328660     0.0358420
H           7.1036811     1.5436772     0.1816007
C           5.0437754     1.9658998    -0.3244104
H           5.2043407     3.0351450    -0.4556673
N           3.7999039     1.5337986    -0.5264391
C           3.5547292     0.2214021    -0.3672663
C           4.5530632    -0.6897431     0.0034012
H           4.3266614    -1.7428216     0.1301185
C           5.8534190    -0.2248124     0.2015101
H           6.6475270    -0.9119873     0.4805371
O           1.3408172     0.5317757    -1.1790484
19
376_C8H9NO_0-7-13-12 (-150,) energy =    -440.2380056
C           1.6706319    -1.5589699    -0.0502534
H           2.2866059    -2.3940654    -0.4153891
H           1.8803514    -1.4949405     1.0270555
C           0.1916447    -1.8380727    -0.3112518
H          -0.4321602    -1.0236586     0.0688486
H          -0.1157246    -2.7685273     0.1773375
H          -0.0063227    -1.9251305    -1.3832913
C           2.1548551    -0.2687595    -0.7070967
C           6.0911784     1.1511547     0.0703358
H           7.0712770     1.5820545     0.2520084
C           4.9945826     1.9756468    -0.2024662
H           5.1144149     3.0578655    -0.2256242
N           3.7656033     1.5197589    -0.4462717
C           3.5717154     0.1899427    -0.4141124
C           4.6019876    -0.7162829    -0.1307710
H           4.4122878    -1.7842660    -0.1055520
C           5.8863555    -0.2251393     0.1036637
H           6.7075665    -0.9061468     0.3099381
O           1.4286843     0.3968662    -1.4186448
19
376_C8H9NO_0-7-13-12 (-135,) energy =    -440.2371879
C           1.6265907    -1.4740884     0.0602880
H           2.3013730    -2.3350354    -0.0499335
H           1.6900873    -1.1996021     1.1239719
C           0.1983371    -1.8490599    -0.3292458
H          -0.4776786    -1.0002496    -0.1923505
H          -0.1611522    -2.6834443     0.2818519
H           0.1435693    -2.1410977    -1.3822735
C           2.1761894    -0.2997893    -0.7412731
C           6.0971471     1.1270656     0.0845665
H           7.0723752     1.5607253     0.2846462
C           4.9758415     1.9484278    -0.0663506
H           5.0702389     3.0294304     0.0252795
N           3.7494598     1.4909620    -0.3268772
C           3.5889505     0.1610253    -0.4318697
C           4.6447811    -0.7455084    -0.2753214
H           4.4764301    -1.8141528    -0.3646695
C           5.9247400    -0.2500291    -0.0270082
H           6.7674722    -0.9277361     0.0794491
O           1.5064843     0.2907193    -1.5655020
19
376_C8H9NO_0-7-13-12 (-120,) energy =    -440.2362570
C           1.5854456    -1.3859659     0.1284548
H           2.2777967    -2.2366890     0.2108922
H           1.5684666    -0.9402451     1.1346786
C           0.1924667    -1.8419776    -0.2993957
H          -0.4934512    -0.9920300    -0.3569064
H          -0.2116807    -2.5686530     0.4129003
H           0.2189622    -2.3059047    -1.2901766
C           2.1928696    -0.3461573    -0.8020274
C           6.0740247     1.1350455     0.1013411
H           7.0384224     1.5797338     0.3277799
C           4.9248590     1.9280162     0.0513610
H           4.9850681     2.9972299     0.2482906
N           3.7075137     1.4559349    -0.2336068
C           3.5931294     0.1391847    -0.4686714
C           4.6778833    -0.7437142    -0.4185107
H           4.5378674    -1.8038471    -0.6093626
C           5.9447290    -0.2303912    -0.1428955
H           6.8115313    -0.8852037    -0.1161327
O           1.5875334     0.1245973    -1.7443222
19
376_C8H9NO_0-7-13-12 (-105,) energy =    -440.2355391
C           1.5433180    -1.3101699     0.1796864
H           2.2219733    -2.1411740     0.4242375
H           1.4715353    -0.7241676     1.1086391
C           0.1739777    -1.8155691    -0.2681133
H          -0.4975052    -0.9792639    -0.4827639
H          -0.2817833    -2.4368560     0.5096928
H           0.2556296    -2.4105323    -1.1829718
C           2.2292276    -0.4227849    -0.8454780
C           6.0580243     1.1388055     0.1371087
H           7.0068328     1.6028796     0.3888311
C           4.8763754     1.8811360     0.1822874
H           4.8944353     2.9295965     0.4752774
N           3.6729080     1.3819810    -0.1213483
C           3.6136964     0.0912163    -0.4810977
C           4.7347681    -0.7430652    -0.5405561
H           4.6334873    -1.7844481    -0.8335219
C           5.9827402    -0.2026193    -0.2338867
H           6.8773612    -0.8176726    -0.2821886
O           1.7124034    -0.1038188    -1.8975343
19
376_C8H9NO_0-7-13-12 (-90,) energy =    -440.2360103
C           1.5037939    -1.2496445     0.2193786
H           2.1390498    -2.0634604     0.6016233
H           1.4049736    -0.5495143     1.0622147
C           0.1449241    -1.7686306    -0.2442872
H          -0.4874780    -0.9466246    -0.5925288
H          -0.3722381    -2.2810684     0.5734070
H           0.2564513    -2.4692208    -1.0773690
C           2.2867492    -0.5353096    -0.8668379
C           6.0504155     1.1458372     0.1629652
H           6.9804427     1.6391337     0.4287263
C           4.8333477     1.8141330     0.3031778
H           4.8043851     2.8356950     0.6785233
N           3.6486691     1.2712030    -0.0028320
C           3.6489719     0.0145797    -0.4705916
C           4.8117659    -0.7407737    -0.6511488
H           4.7567742    -1.7513701    -1.0458139
C           6.0361340    -0.1606269    -0.3241123
H           6.9612077    -0.7165133    -0.4515261
O           1.8863500    -0.4138102    -2.0077399
19
376_C8H9NO_0-7-13-12 (-75,) energy =    -440.2381443
C           1.4590055    -1.1835380     0.2426527
H           2.0371738    -1.9675783     0.7561528
H           1.3412541    -0.3842226     0.9880058
C           0.1117846    -1.7126836    -0.2428672
H          -0.4669254    -0.9203042    -0.7273104
H          -0.4738309    -2.1043446     0.5952006
H           0.2465887    -2.5128925    -0.9767178
C           2.3419259    -0.6494217    -0.8688459
C           6.0385918     1.1520881     0.1820027
H           6.9511447     1.6729842     0.4557147
C           4.7947917     1.7375150     0.4205735
H           4.7266898     2.7245553     0.8747729
N           3.6295202     1.1510301     0.1189956
C           3.6785335    -0.0620068    -0.4510516
C           4.8725833    -0.7236557    -0.7556440
H           4.8518650    -1.6910610    -1.2482443
C           6.0750586    -0.1072189    -0.4170373
H           7.0232763    -0.5950170    -0.6264544
O           2.0597517    -0.7360363    -2.0489581
19
376_C8H9NO_0-7-13-12 (-60,) energy =    -440.2413223
C           1.4252294    -1.1143686     0.2618994
H           1.9453993    -1.8420463     0.9048139
H           1.2923382    -0.2246252     0.8915098
C           0.0939780    -1.6703391    -0.2372366
H          -0.4326637    -0.9321005    -0.8501368
H          -0.5511849    -1.9408379     0.6049989
H           0.2475606    -2.5584346    -0.8573746
C           2.3932909    -0.7606370    -0.8503924
C           6.0257263     1.1629739     0.1888659
H           6.9213593     1.7108785     0.4657997
C           4.7658770     1.6613874     0.5235741
H           4.6682927     2.6077201     1.0528367
N           3.6203065     1.0353019     0.2284910
C           3.7052277    -0.1277358    -0.4357338
C           4.9169493    -0.6935811    -0.8478566
H           4.9166203    -1.6160720    -1.4194285
C           6.1005543    -0.0428215    -0.5093079
H           7.0623749    -0.4596128    -0.7958520
O           2.2006114    -1.0409653    -2.0199979
19
376_C8H9NO_0-7-13-12 (-45,) energy =    -440.2444948
C           1.3906219    -1.0524176     0.2741605
H           1.8522830    -1.6915786     1.0429276
H           1.2414648    -0.0835995     0.7671937
C           0.0806261    -1.6539137    -0.2286427
H          -0.3919301    -1.0002863    -0.9686970
H          -0.6204855    -1.7973131     0.6000574
H           0.2518452    -2.6208356    -0.7109635
C           2.4310428    -0.8725514    -0.8149857
C           6.0173001     1.1590382     0.1750316
H           6.9025443     1.7265294     0.4461325
C           4.7564228     1.5727335     0.6090535
H           4.6484913     2.4734055     1.2109958
N           3.6252654     0.9172563     0.3259857
C           3.7231754    -0.1907296    -0.4264761
C           4.9353997    -0.6680579    -0.9386305
H           4.9381445    -1.5461407    -1.5755556
C           6.1061964     0.0115754    -0.6138600
H           7.0684382    -0.3387717    -0.9774250
O           2.3016532    -1.3243250    -1.9402486
19
376_C8H9NO_0-7-13-12 (-30,) energy =    -440.2469748
C           1.3539687    -0.9679603     0.2490044
H           1.7599505    -1.4678404     1.1415761
H           1.1688549     0.0635264     0.5727423
C           0.0825680    -1.6567793    -0.2407124
H          -0.3325453    -1.1412290    -1.1124814
H          -0.6773814    -1.6654273     0.5475629
H           0.2840547    -2.6896464    -0.5401951
C           2.4627928    -0.9485409    -0.7865510
C           6.0218812     1.1453011     0.1728754
H           6.9015492     1.7212431     0.4444714
C           4.7728767     1.4765029     0.7030465
H           4.6691890     2.3195127     1.3841209
N           3.6503477     0.8072290     0.4217311
C           3.7424648    -0.2321268    -0.4242681
C           4.9426789    -0.6280287    -1.0268866
H           4.9377110    -1.4580333    -1.7248830
C           6.1057515     0.0677130    -0.7094105
H           7.0585907    -0.2186154    -1.1463314
O           2.3806983    -1.5358833    -1.8532517
19
376_C8H9NO_0-7-13-12 (-15,) energy =    -440.2485539
C           1.3140814    -0.8795042     0.2141863
H           1.6602959    -1.2043460     1.2058326
H           1.0940172     0.1878078     0.3420663
C           0.0845350    -1.6660614    -0.2337656
H          -0.2728921    -1.3172475    -1.2076118
H          -0.7275315    -1.5529774     0.4920422
H           0.3126180    -2.7314632    -0.3351355
C           2.4852531    -1.0103233    -0.7424292
C           6.0246146     1.1311792     0.1864218
H           6.9009259     1.7121460     0.4582625
C           4.7976617     1.3752922     0.8086852
H           4.7093414     2.1522450     1.5662534
N           3.6808947     0.6972234     0.5288071
C           3.7546175    -0.2648805    -0.4059938
C           4.9332663    -0.5764987    -1.0943836
H           4.9130291    -1.3557000    -1.8482197
C           6.0907541     0.1321396    -0.7850040
H           7.0260592    -0.0865373    -1.2931133
O           2.4426181    -1.7155196    -1.7383938
19
376_C8H9NO_0-7-13-12 (0,) energy =    -440.2491014
C           1.2913869    -0.8213421     0.1680379
H           1.5682074    -0.9790553     1.2190060
H           1.0683516     0.2522680     0.1078488
C           0.0874590    -1.6711247    -0.2318460
H          -0.1984767    -1.4859378    -1.2718162
H          -0.7710600    -1.4429404     0.4084201
H           0.3107994    -2.7387038    -0.1426171
C           2.5182785    -1.0920345    -0.6838284
C           6.0295844     1.1195230     0.1847714
H           6.9009594     1.7116519     0.4482795
C           4.8345796     1.2732495     0.8926156
H           4.7675960     1.9865344     1.7124576
N           3.7245845     0.5798888     0.6244329
C           3.7734127    -0.3089538    -0.3816680
C           4.9220867    -0.5356404    -1.1493519
H           4.8848428    -1.2703368    -1.9459316
C           6.0711157     0.1941582    -0.8583516
H           6.9816989     0.0456153    -1.4324599
O           2.5178804    -1.9107824    -1.5900490
19
376_C8H9NO_0-7-13-12 (15,) energy =    -440.2485539
C           1.2692465    -0.7691825     0.1146068
H           1.4764450    -0.7535079     1.1919938
H           1.0570507     0.2803797    -0.1346688
C           0.0879008    -1.6743642    -0.2262510
H          -0.1216634    -1.6625938    -1.3001802
H          -0.8112832    -1.3468733     0.3059660
H           0.2940035    -2.7125339     0.0521838
C           2.5459079    -1.1596265    -0.6075834
C           6.0296810     1.1186901     0.1977207
H           6.8975454     1.7204522     0.4507725
C           4.8769148     1.1802392     0.9848407
H           4.8414413     1.8271683     1.8598206
N           3.7718232     0.4734335     0.7309192
C           3.7848331    -0.3392794    -0.3387824
C           4.8941527    -0.4802874    -1.1812348
H           4.8368711    -1.1683379    -2.0173796
C           6.0347863     0.2698323    -0.9093180
H           6.9126738     0.1924473    -1.5450190
O           2.5900445    -2.0783777    -1.4107109
19
376_C8H9NO_0-7-13-12 (30,) energy =    -440.2469748
C           1.2532637    -0.7201440     0.0252440
H           1.4023372    -0.5110339     1.0915869
H           1.0556803     0.2652771    -0.4234119
C           0.0926694    -1.6816519    -0.2182252
H          -0.0522788    -1.8619521    -1.2876094
H          -0.8362077    -1.2745788     0.1946363
H           0.2813392    -2.6519886     0.2518208
C           2.5688778    -1.2096223    -0.5507889
C           6.0382400     1.1050329     0.2092536
H           6.9069355     1.7079757     0.4564729
C           4.9369568     1.0726867     1.0676924
H           4.9441258     1.6428662     1.9951205
N           3.8311969     0.3621455     0.8236374
C           3.7949241    -0.3612323    -0.3076757
C           4.8558467    -0.4143322    -1.2198299
H           4.7697461    -1.0446579    -2.0981280
C           5.9928530     0.3455575    -0.9602747
H           6.8312157     0.3409630    -1.6515873
O           2.6547009    -2.2102032    -1.2443543
19
376_C8H9NO_0-7-13-12 (45,) energy =    -440.2444948
C           1.2398352    -0.6813410    -0.0608923
H           1.3304160    -0.3025160     0.9648877
H           1.0773891     0.2154239    -0.6790225
C           0.0877495    -1.6714549    -0.2127836
H           0.0123617    -2.0314778    -1.2431173
H          -0.8623611    -1.2020665     0.0625870
H           0.2364133    -2.5466504     0.4276465
C           2.5841458    -1.2493481    -0.4747330
C           6.0392555     1.1049962     0.2238483
H           6.9093114     1.7098659     0.4611975
C           4.9975564     0.9792922     1.1449303
H           5.0541717     1.4750157     2.1125288
N           3.8909206     0.2634678     0.9163536
C           3.7966568    -0.3715776    -0.2631589
C           4.8006540    -0.3364576    -1.2380375
H           4.6786223    -0.9074658    -2.1522412
C           5.9347801     0.4334219    -0.9947559
H           6.7275262     0.5002045    -1.7349757
O           2.7078911    -2.3240869    -1.0374775
19
376_C8H9NO_0-7-13-12 (60,) energy =    -440.2413223
C           1.2477935    -0.6777087    -0.1323728
H           1.2688740    -0.1668902     0.8393950
H           1.1444109     0.1291777    -0.8751224
C           0.0953189    -1.6736494    -0.2342295
H           0.0886464    -2.1673561    -1.2104884
H          -0.8653420    -1.1677073    -0.0930965
H           0.1865212    -2.4559265     0.5258490
C           2.6117313    -1.2982296    -0.3649444
C           6.0427658     1.1210297     0.2267585
H           6.9112793     1.7356750     0.4434276
C           5.0734867     0.9043507     1.2071737
H           5.1843901     1.3375948     2.1997396
N           3.9713538     0.1713657     1.0086176
C           3.8109819    -0.3880061    -0.2006991
C           4.7411724    -0.2610035    -1.2384422
H           4.5741419    -0.7732423    -2.1804593
C           5.8690175     0.5269807    -1.0238034
H           6.6056084     0.6644792    -1.8108542
O           2.7695218    -2.4410654    -0.7557320
19
376_C8H9NO_0-7-13-12 (75,) energy =    -440.2381443
C           1.2546861    -0.6807177    -0.2113595
H           1.2083898    -0.0572505     0.6927793
H           1.2244545     0.0325134    -1.0498509
C           0.0948671    -1.6710599    -0.2804312
H           0.1507443    -2.2770320    -1.1896720
H          -0.8643496    -1.1432878    -0.2725831
H           0.1173029    -2.3580990     0.5709967
C           2.6214059    -1.3372319    -0.2477558
C           6.0515620     1.1201587     0.2108505
H           6.9242852     1.7390758     0.3960525
C           5.1669840     0.8215421     1.2476867
H           5.3469720     1.1980348     2.2531919
N           4.0670915     0.0741595     1.0913953
C           3.8213859    -0.4135762    -0.1335772
C           4.6576947    -0.1948261    -1.2331439
H           4.4259823    -0.6429768    -2.1946155
C           5.7871581     0.6012933    -1.0567859
H           6.4546987     0.8042403    -1.8899254
O           2.7880071    -2.5282832    -0.4305953
19
376_C8H9NO_0-7-13-12 (90,) energy =    -440.2360103
C           1.2735036    -0.6829099    -0.2923470
H           1.1661607     0.0381973     0.5315476
H           1.3272560    -0.0656491    -1.2023236
C           0.1000498    -1.6582048    -0.3439777
H           0.2141780    -2.3651984    -1.1712775
H          -0.8441390    -1.1197306    -0.4752257
H           0.0394368    -2.2433686     0.5784148
C           2.6215108    -1.3591673    -0.1229012
C           6.0659030     1.1077121     0.1974081
H           6.9448076     1.7268215     0.3495640
C           5.2740495     0.7295568     1.2825344
H           5.5300339     1.0498643     2.2910913
N           4.1775006    -0.0302603     1.1723672
C           3.8354206    -0.4442798    -0.0562376
C           4.5612751    -0.1243261    -1.2077645
H           4.2469926    -0.4968093    -2.1786263
C           5.6983764     0.6705839    -1.0746532
H           6.2883076     0.9394826    -1.9468229
O           2.7604704    -2.5650295    -0.0652357
19
376_C8H9NO_0-7-13-12 (105,) energy =    -440.2355391
C           1.2963084    -0.7022887    -0.3691923
H           1.1327551     0.1095673     0.3558212
H           1.4301896    -0.1926104    -1.3352409
C           0.1138258    -1.6675455    -0.4017496
H           0.2767034    -2.4624113    -1.1361020
H          -0.8090861    -1.1391750    -0.6620496
H          -0.0229831    -2.1470674     0.5717558
C           2.6118403    -1.3644035     0.0047938
C           6.0789388     1.0873264     0.1836076
H           6.9667035     1.7016296     0.2996763
C           5.3821922     0.6363160     1.3063379
H           5.7189118     0.9005561     2.3074552
N           4.2870709    -0.1294782     1.2434702
C           3.8413680    -0.4690914     0.0248599
C           4.4551970    -0.0550532    -1.1617944
H           4.0520278    -0.3534901    -2.1256175
C           5.6032218     0.7313623    -1.0772289
H           6.1141849     1.0604884    -1.9780968
O           2.7018974    -2.5389717     0.3013546
19
376_C8H9NO_0-7-13-12 (120,) energy =    -440.2362570
C           1.3192915    -0.7309711    -0.4629645
H           1.1152076     0.1752174     0.1274710
H           1.5165614    -0.3633042    -1.4806979
C           0.1299865    -1.6882243    -0.4382064
H           0.3288071    -2.5762460    -1.0460427
H          -0.7688904    -1.1973719    -0.8253007
H          -0.0714773    -2.0305138     0.5808382
C           2.5968888    -1.3404570     0.0958154
C           6.1039815     1.0613137     0.1679318
H           7.0061494     1.6591496     0.2560816
C           5.4903416     0.5363608     1.3079990
H           5.9062928     0.7300975     2.2954578
N           4.3878487    -0.2183722     1.2782590
C           3.8393096    -0.4666727     0.0784166
C           4.3623091     0.0329005    -1.1197551
H           3.8813324    -0.1881322    -2.0682891
C           5.5264374     0.7990108    -1.0724013
H           5.9700910     1.1855628    -1.9859607
O           2.6348086    -2.4527536     0.5829699
19
376_C8H9NO_0-7-13-12 (135,) energy =    -440.2371879
C           1.3426728    -0.7753772    -0.5706042
H           1.1140875     0.2179176    -0.1559812
H           1.5924950    -0.5904953    -1.6251738
C           0.1430333    -1.7129665    -0.4521150
H           0.3677410    -2.6927892    -0.8840953
H          -0.7253330    -1.2950061    -0.9718452
H          -0.1226804    -1.8739113     0.5965553
C           2.5795052    -1.2923579     0.1550085
C           6.1261898     1.0555839     0.1491250
H           7.0426238     1.6339363     0.2185493
C           5.5848153     0.4497424     1.2869333
H           6.0731082     0.5613717     2.2538781
N           4.4717337    -0.2865551     1.2781860
C           3.8311531    -0.4350439     0.1063813
C           4.2809335     0.1499052    -1.0838376
H           3.7352435     0.0098879    -2.0117079
C           5.4587830     0.8966760    -1.0624356
H           5.8434561     1.3462475    -1.9738794
O           2.5691826    -2.3245873     0.7960658
19
376_C8H9NO_0-7-13-12 (150,) energy =    -440.2380056
C           1.3854988    -0.8572689    -0.6838476
H           1.1873476     0.2105296    -0.5129122
H           1.6913789    -0.9292281    -1.7380731
C           0.1352974    -1.6994121    -0.4364352
H           0.3318388    -2.7573561    -0.6317935
H          -0.6836687    -1.3708304    -1.0847173
H          -0.1911394    -1.6168164     0.6044759
C           2.5617984    -1.2702543     0.1972428
C           6.1363734     1.0399210     0.1707899
H           7.0625534     1.6035143     0.2326433
C           5.6620351     0.3330432     1.2807706
H           6.2145537     0.3504253     2.2191278
N           4.5412413    -0.3890886     1.2773772
C           3.8220787    -0.4262089     0.1422714
C           4.2037083     0.2638700    -1.0158035
H           3.5980495     0.2195563    -1.9149270
C           5.3885945     0.9998376    -1.0024398
H           5.7169951     1.5316322    -1.8912904
O           2.4934983    -2.2236445     0.9476189
19
376_C8H9NO_0-7-13-12 (165,) energy =    -440.2385771
C           1.7077799    -1.6186329    -0.2266724
H           2.3287599    -2.1800314    -0.9391850
H           2.0065742    -1.9791068     0.7687960
C           0.2227510    -1.8872646    -0.4638452
H          -0.3925553    -1.3467183     0.2607617
H           0.0077344    -2.9572931    -0.3755911
H          -0.0806265    -1.5530478    -1.4603843
C           2.0647108    -0.1370808    -0.3332701
C           6.1310556     1.1034331    -0.0759808
H           7.1461615     1.4869961    -0.0339611
C           5.0903280     1.9037297    -0.5606686
H           5.2929527     2.9169161    -0.9051851
N           3.8214711     1.5048977    -0.6360271
C           3.5273686     0.2577137    -0.2287559
C           4.5022726    -0.6221678     0.2607554
H           4.2383501    -1.6252327     0.5777659
C           5.8253183    -0.1874459     0.3438201
H           6.5986725    -0.8469320     0.7281045
O           1.2089630     0.7072312    -0.5109412
19
376_C8H9NO_0-7-13-12 (180,) energy =    -440.2387574
C           1.6996787    -1.6063198    -0.1753275
H           2.3140396    -2.2712687    -0.7995648
H           1.9843269    -1.8329812     0.8624259
C           0.2134729    -1.8805747    -0.3977900
H          -0.4021097    -1.2404784     0.2406722
H          -0.0210583    -2.9261989    -0.1726035
H          -0.0711586    -1.6751583    -1.4336791
C           2.0859949    -0.1597536    -0.4797555
C           6.1231126     1.1222353    -0.0208280
H           7.1302460     1.5171969     0.0741749
C           5.0750422     1.9474578    -0.4447964
H           5.2631280     2.9935109    -0.6830844
N           3.8166221     1.5346791    -0.5844734
C           3.5379589     0.2501013    -0.3014461
C           4.5198069    -0.6525982     0.1297084
H           4.2694508    -1.6840971     0.3514633
C           5.8342502    -0.2068343     0.2718264
H           6.6134896    -0.8870692     0.6046029
O           1.2578891     0.6465462    -0.8550159
