22
076_C10H8N2OS_2-0-18-17 (-165,) energy =    -968.8077732
N           1.5576161    -1.0232529    -0.5721446
H           1.7208925    -0.2252544    -1.1732237
C           2.4978054    -1.3684784     0.3805528
C           5.6973270     1.3847041     1.1747463
H           6.5185782     2.0648961     1.3832437
C           5.7959752     0.0372537     1.5308917
H           6.6943501    -0.3336422     2.0162312
C           4.7418849    -0.8332789     1.2675090
H           4.7939919    -1.8806880     1.5451847
C           3.5819252    -0.3685307     0.6317301
C           3.4838491     0.9877906     0.2868526
H           2.5760966     1.3852440    -0.1596707
C           4.5377134     1.8592475     0.5588533
H           4.4491708     2.9096685     0.2965355
O           2.4283909    -2.4349513     0.9822772
C          -1.0489368    -2.5234624    -2.3928490
H          -1.6753796    -2.4129110    -3.2706754
N          -0.0977144    -1.5607715    -2.1356662
C           0.5542345    -1.8588958    -1.0451910
S           0.0850642    -3.3534874    -0.2556250
C          -1.1154705    -3.5544715    -1.5057812
H          -1.7681834    -4.4162767    -1.5178601
22
076_C10H8N2OS_2-0-18-17 (-150,) energy =    -968.8058146
N           1.4718102    -0.9709813    -0.4603285
H           1.6581122    -0.1930402    -1.0821745
C           2.4629304    -1.3523834     0.4330372
C           5.7100012     1.3717141     1.1293557
H           6.5435260     2.0443817     1.3120148
C           5.8205985     0.0161589     1.4496251
H           6.7403703    -0.3684494     1.8812570
C           4.7508807    -0.8447794     1.2199257
H           4.8119722    -1.8982263     1.4717846
C           3.5629778    -0.3619836     0.6528986
C           3.4535758     1.0020095     0.3435028
H           2.5261835     1.4110175    -0.0486380
C           4.5232878     1.8637788     0.5827965
H           4.4263622     2.9202036     0.3490697
O           2.4144821    -2.4277353     1.0169824
C          -0.9332292    -2.5856459    -2.4606802
H          -1.4431239    -2.5453242    -3.4164504
N           0.0117178    -1.6249688    -2.1748968
C           0.5121684    -1.8306365    -0.9875047
S          -0.0875536    -3.2429569    -0.1407477
C          -1.1390354    -3.5305156    -1.5013491
H          -1.8027553    -4.3836410    -1.5225049
22
076_C10H8N2OS_2-0-18-17 (-135,) energy =    -968.8029399
N           1.4090749    -0.9431602    -0.3959015
H           1.6261065    -0.1798843    -1.0271764
C           2.4370656    -1.3594013     0.4499923
C           5.6982277     1.3586292     1.1076821
H           6.5354170     2.0296828     1.2793197
C           5.8278622    -0.0063214     1.3771191
H           6.7661498    -0.3996847     1.7580647
C           4.7535779    -0.8652761     1.1618080
H           4.8295238    -1.9261958     1.3754500
C           3.5417255    -0.3706526     0.6593210
C           3.4136357     1.0022307     0.4008080
H           2.4686741     1.4169869     0.0603667
C           4.4882380     1.8618243     0.6262860
H           4.3771801     2.9250017     0.4328529
O           2.4128012    -2.4490891     1.0029401
C          -0.8099815    -2.6601251    -2.5339586
H          -1.1872730    -2.7053503    -3.5491429
N           0.1492385    -1.7210398    -2.2261776
C           0.4762212    -1.8109197    -0.9667216
S          -0.3183242    -3.0857965    -0.0668537
C          -1.1963873    -3.4812938    -1.5172774
H          -1.8984243    -4.3031140    -1.5391395
22
076_C10H8N2OS_2-0-18-17 (-120,) energy =    -968.7999497
N           1.3899638    -0.9100093    -0.3962617
H           1.6242680    -0.1524091    -1.0286556
C           2.4444174    -1.3648283     0.4061266
C           5.6843428     1.3633895     1.1264732
H           6.5162522     2.0371449     1.3127701
C           5.8398730    -0.0117431     1.3203166
H           6.7929709    -0.4100147     1.6568656
C           4.7726146    -0.8744827     1.0860996
H           4.8685710    -1.9439686     1.2410334
C           3.5417420    -0.3724788     0.6404847
C           3.3877613     1.0098873     0.4581030
H           2.4280581     1.4252066     0.1631472
C           4.4558021     1.8728162     0.7020492
H           4.3253928     2.9429525     0.5679265
O           2.4474797    -2.4802194     0.9002828
C          -0.7121439    -2.7551718    -2.5626514
H          -0.9697293    -2.9266436    -3.6014763
N           0.2893670    -1.8578936    -2.2668132
C           0.4563909    -1.7779999    -0.9767949
S          -0.5708432    -2.8247120    -0.0198787
C          -1.2930368    -3.3809729    -1.4993305
H          -2.0622890    -4.1405960    -1.4975124
22
076_C10H8N2OS_2-0-18-17 (-105,) energy =    -968.7974559
N           1.3982343    -0.8857632    -0.4225971
H           1.6273401    -0.1164515    -1.0424387
C           2.4711489    -1.3696059     0.3413084
C           5.6760392     1.3717975     1.1631750
H           6.4987952     2.0495710     1.3740957
C           5.8615195    -0.0092550     1.2691133
H           6.8289179    -0.4078259     1.5617056
C           4.8060254    -0.8773986     1.0033633
H           4.9252120    -1.9522553     1.0903475
C           3.5569216    -0.3737911     0.6142405
C           3.3731006     1.0135463     0.5197929
H           2.3990145     1.4241074     0.2688418
C           4.4296208     1.8814578     0.7949741
H           4.2765838     2.9550252     0.7293314
O           2.4982565    -2.5100655     0.7703295
C          -0.6102120    -2.9228617    -2.5222734
H          -0.7653504    -3.2580183    -3.5413369
N           0.4286648    -2.0598624    -2.2577421
C           0.4594266    -1.7633072    -0.9907653
S          -0.7696448    -2.5392273    -0.0120423
C          -1.3613873    -3.3079863    -1.4497831
H          -2.1951228    -3.9957405    -1.4202769
22
076_C10H8N2OS_2-0-18-17 (-90,) energy =    -968.7954719
N           1.3999356    -0.8477667    -0.4379964
H           1.6019090    -0.0415361    -1.0186912
C           2.4898193    -1.3542452     0.2841504
C           5.6765350     1.3797461     1.1978676
H           6.4950381     2.0553636     1.4311445
C           5.8815115    -0.0024538     1.2210126
H           6.8595745    -0.4039292     1.4711913
C           4.8316852    -0.8683571     0.9267905
H           4.9656874    -1.9447737     0.9498470
C           3.5688966    -0.3604011     0.5917584
C           3.3656938     1.0272326     0.5803078
H           2.3813669     1.4375482     0.3723835
C           4.4166181     1.8925873     0.8839829
H           4.2488812     2.9659980     0.8830755
O           2.5360303    -2.5144181     0.6534195
C          -0.5117355    -3.0635190    -2.4608232
H          -0.5759171    -3.5508549    -3.4269055
N           0.5524180    -2.2307912    -2.2049517
C           0.4628836    -1.7323874    -1.0069815
S          -0.9303553    -2.2641087    -0.0841873
C          -1.4107077    -3.2217415    -1.4446748
H          -2.2989279    -3.8379135    -1.4200858
22
076_C10H8N2OS_2-0-18-17 (-75,) energy =    -968.7939383
N           1.4087215    -0.8643962    -0.4483409
H           1.5560762     0.0004626    -0.9553957
C           2.5181170    -1.3750840     0.2342753
C           5.6632512     1.3863334     1.2165968
H           6.4716692     2.0682621     1.4661180
C           5.8979665     0.0095419     1.1691058
H           6.8893224    -0.3815379     1.3805023
C           4.8610813    -0.8647101     0.8540365
H           5.0183122    -1.9377648     0.8225907
C           3.5811142    -0.3703750     0.5681127
C           3.3484054     1.0112960     0.6283015
H           2.3514861     1.4103003     0.4615873
C           4.3863086     1.8848824     0.9527675
H           4.1951488     2.9530064     1.0072609
O           2.5971686    -2.5479906     0.5534129
C          -0.4564255    -3.2007424    -2.3833079
H          -0.4517240    -3.8264601    -3.2684221
N           0.6462764    -2.4278620    -2.1093233
C           0.4655655    -1.7414199    -1.0204954
S          -1.0795736    -2.0081527    -0.2278810
C          -1.4887206    -3.1167066    -1.4916364
H          -2.4382291    -3.6338813    -1.5104711
22
076_C10H8N2OS_2-0-18-17 (-60,) energy =    -968.7931072
N           1.4860351    -0.9339768    -0.4952134
H           1.5277791     0.0089769    -0.8589198
C           2.6068218    -1.4212367     0.1771149
C           5.6431028     1.4288768     1.2586079
H           6.4244986     2.1324251     1.5329073
C           5.9370060     0.0686638     1.1318822
H           6.9482614    -0.2882278     1.3063145
C           4.9341747    -0.8331933     0.7855597
H           5.1377994    -1.8949462     0.6943394
C           3.6287155    -0.3832278     0.5454907
C           3.3372135     0.9812948     0.6859357
H           2.3213570     1.3469833     0.5596971
C           4.3407650     1.8822472     1.0425124
H           4.1028434     2.9358718     1.1594483
O           2.7406582    -2.5988622     0.4556534
C          -0.4521947    -3.3536031    -2.2398294
H          -0.4310126    -4.1394325    -2.9861571
N           0.7125562    -2.6874420    -1.9438583
C           0.5070702    -1.7821553    -1.0358149
S          -1.1576523    -1.6828405    -0.4591772
C          -1.5688245    -2.9521056    -1.5628392
H          -2.5817804    -3.3188861    -1.6560736
22
076_C10H8N2OS_2-0-18-17 (-45,) energy =    -968.7932708
N           1.5934712    -1.0267138    -0.6093955
H           1.5127686    -0.0337528    -0.7743754
C           2.7247832    -1.4888885     0.0654974
C           5.5899299     1.4650236     1.3309533
H           6.3299787     2.1933573     1.6511603
C           5.9621902     0.1355952     1.1156321
H           6.9929081    -0.1729008     1.2668057
C           5.0126670    -0.7986027     0.7102291
H           5.2781625    -1.8383251     0.5506392
C           3.6818987    -0.4123002     0.4982131
C           3.3128193     0.9209849     0.7286602
H           2.2777733     1.2390779     0.6286110
C           4.2626033     1.8542134     1.1445355
H           3.9631747     2.8819015     1.3303684
O           2.9328245    -2.6683291     0.2775619
C          -0.5401012    -3.4844721    -2.0272273
H          -0.5790666    -4.4240201    -2.5664872
N           0.6898210    -2.9515545    -1.7160767
C           0.5547618    -1.8315965    -1.0770648
S          -1.1249044    -1.3326620    -0.8013342
C          -1.6328326    -2.7615971    -1.6493281
H          -2.6786436    -2.9712364    -1.8251652
22
076_C10H8N2OS_2-0-18-17 (-30,) energy =    -968.7936011
N           1.6081005    -1.0759796    -0.6139325
H           1.5118749    -0.0794295    -0.7445374
C           2.7662426    -1.5316997     0.0228213
C           5.5601773     1.4695078     1.3371868
H           6.2826580     2.2102292     1.6688519
C           5.9725784     0.1646176     1.0550567
H           7.0173273    -0.1122144     1.1656906
C           5.0455996    -0.7855130     0.6348737
H           5.3431021    -1.8073558     0.4242903
C           3.6966396    -0.4391330     0.4748819
C           3.2874401     0.8689600     0.7728110
H           2.2391999     1.1528359     0.7155968
C           4.2153169     1.8176344     1.2030758
H           3.8851752     2.8248459     1.4414533
O           3.0183310    -2.7095829     0.1861653
C          -0.5878594    -3.5470481    -1.9035189
H          -0.6642259    -4.5559712    -2.2926646
N           0.6501637    -3.0803326    -1.5210194
C           0.5624567    -1.8635618    -1.0844639
S          -1.0776193    -1.1784777    -1.1080310
C          -1.6344479    -2.6835149    -1.7826586
H          -2.6709084    -2.8281228    -2.0527878
22
076_C10H8N2OS_2-0-18-17 (-15,) energy =    -968.7938544
N           1.6217673    -1.0993781    -0.5986957
H           1.5269523    -0.1019375    -0.7237141
C           2.8058730    -1.5497629    -0.0050918
C           5.5408830     1.4838250     1.3569974
H           6.2489268     2.2332194     1.7001000
C           5.9861169     0.2054454     1.0102982
H           7.0416435    -0.0417157     1.0820329
C           5.0781244    -0.7564034     0.5757379
H           5.4015389    -1.7588500     0.3157300
C           3.7151440    -0.4473048     0.4658071
C           3.2732123     0.8335677     0.8285201
H           2.2149700     1.0834350     0.8115267
C           4.1826349     1.7936002     1.2729016
H           3.8279531     2.7789620     1.5619668
O           3.0945747    -2.7247446     0.1083389
C          -0.6487654    -3.5709215    -1.7498526
H          -0.7831832    -4.6211215    -1.9828796
N           0.5817312    -3.1502852    -1.2936935
C           0.5689585    -1.8750872    -1.0668481
S          -0.9824312    -1.0694685    -1.4015253
C          -1.6120802    -2.6194636    -1.8901606
H          -2.6270639    -2.7232686    -2.2462885
22
076_C10H8N2OS_2-0-18-17 (0,) energy =    -968.7941241
N           1.8184934    -1.2906992    -0.6766800
H           2.4249717    -0.9569985    -1.4119076
C           2.2620978    -1.0916193     0.6361408
C           5.8137188     1.2965976     1.0988482
H           6.7138594     1.8894139     1.2365329
C           5.4489877     0.3439017     2.0539702
H           6.0654534     0.1931988     2.9358011
C           4.2928546    -0.4120937     1.8802691
H           3.9846281    -1.1465713     2.6169565
C           3.4954854    -0.2368483     0.7406224
C           3.8595583     0.7308534    -0.2072469
H           3.2271660     0.9299314    -1.0691547
C           5.0133170     1.4942633    -0.0272805
H           5.2801919     2.2490956    -0.7616616
O           1.7219607    -1.5791620     1.6092767
C          -1.1884022    -3.1233472    -1.1033524
H          -1.9926928    -3.6496147    -0.6018703
N          -0.1933415    -2.5579608    -0.3353431
C           0.6816276    -1.9717714    -1.0891989
S           0.3529657    -2.0687645    -2.8364163
C          -1.0836774    -2.9795952    -2.4525916
H          -1.7395473    -3.3417098    -3.2312928
22
076_C10H8N2OS_2-0-18-17 (15,) energy =    -968.7943960
N           1.8151306    -1.2643155    -0.6921550
H           2.4212574    -0.9292822    -1.4272558
C           2.2869704    -1.1203549     0.6191134
C           5.8029400     1.3125762     1.1079419
H           6.6951905     1.9159789     1.2509931
C           5.4783512     0.3125951     2.0287358
H           6.1181548     0.1358744     2.8888477
C           4.3324666    -0.4572782     1.8485400
H           4.0552309    -1.2290911     2.5589290
C           3.5055157    -0.2475333     0.7361391
C           3.8290015     0.7669810    -0.1768314
H           3.1717667     0.9894930    -1.0138923
C           4.9728329     1.5436076     0.0099899
H           5.2087375     2.3345668    -0.6964491
O           1.7795639    -1.6672964     1.5781121
C          -1.2508665    -2.9971035    -1.1052827
H          -2.1291348    -3.3885313    -0.6045329
N          -0.2928947    -2.3573114    -0.3491967
C           0.6807898    -1.9520106    -1.1013340
S           0.5020800    -2.3321328    -2.8303496
C          -1.0234500    -3.0830849    -2.4445485
H          -1.6390860    -3.5247778    -3.2149973
22
076_C10H8N2OS_2-0-18-17 (30,) energy =    -968.7945652
N           1.8057343    -1.2167113    -0.7233923
H           2.4107407    -0.8804446    -1.4591597
C           2.3052061    -1.1367762     0.5842183
C           5.7944431     1.3201068     1.1294908
H           6.6806573     1.9292968     1.2851330
C           5.4987681     0.2752213     2.0093259
H           6.1552511     0.0695049     2.8502060
C           4.3605209    -0.5019956     1.8130131
H           4.1057075    -1.3091524     2.4918325
C           3.5124449    -0.2536761     0.7247124
C           3.8068719     0.8049212    -0.1470215
H           3.1320940     1.0536419    -0.9622420
C           4.9432210     1.5882831     0.0563747
H           5.1569862     2.4132959    -0.6174075
O           1.8231566    -1.7429763     1.5204801
C          -1.3027885    -2.8727428    -1.1217952
H          -2.2379745    -3.1379860    -0.6418526
N          -0.3744255    -2.1526571    -0.4034277
C           0.6766895    -1.9203000    -1.1247736
S           0.6136031    -2.5797558    -2.7737658
C          -0.9778377    -3.1860377    -2.4067835
H          -1.5615211    -3.7120879    -3.1487258
22
076_C10H8N2OS_2-0-18-17 (45,) energy =    -968.7944866
N           1.7854639    -1.1725386    -0.7463421
H           2.3796435    -0.8283078    -1.4877380
C           2.3186762    -1.1521932     0.5502455
C           5.7839121     1.3257380     1.1394038
H           6.6649481     1.9397541     1.3052240
C           5.5202360     0.2386903     1.9773683
H           6.1960287     0.0052076     2.7954039
C           4.3887892    -0.5451968     1.7686282
H           4.1584901    -1.3853596     2.4154280
C           3.5158161    -0.2601780     0.7094876
C           3.7782684     0.8398167    -0.1200619
H           3.0834001     1.1127159    -0.9100605
C           4.9079925     1.6293429     0.0958994
H           5.0975197     2.4863258    -0.5444330
O           1.8648610    -1.8136075     1.4634798
C          -1.3426008    -2.7957905    -1.1306232
H          -2.3215254    -2.9516704    -0.6917906
N          -0.4440211    -1.9888593    -0.4707105
C           0.6683820    -1.9092661    -1.1316574
S           0.7029024    -2.8335799    -2.6456211
C          -0.9340584    -3.3239447    -2.3187965
H          -1.4838245    -3.9447091    -3.0120887
22
076_C10H8N2OS_2-0-18-17 (60,) energy =    -968.7941257
N           1.7706910    -1.1215570    -0.7644263
H           2.3432921    -0.7511768    -1.5107084
C           2.3406164    -1.1653342     0.5142163
C           5.7825808     1.3278004     1.1661791
H           6.6583061     1.9454086     1.3463290
C           5.5449193     0.2010826     1.9582203
H           6.2358823    -0.0597022     2.7550662
C           4.4202054    -0.5873841     1.7307961
H           4.2101093    -1.4590306     2.3418273
C           3.5278004    -0.2661451     0.6986255
C           3.7641615     0.8728994    -0.0846699
H           3.0539961     1.1712272    -0.8513495
C           4.8873922     1.6662241     0.1500291
H           5.0570197     2.5531503    -0.4540867
O           1.9144251    -1.8842576     1.3980649
C          -1.3817223    -2.6972953    -1.1631207
H          -2.3989318    -2.7491549    -0.7921166
N          -0.5051615    -1.8184069    -0.5710513
C           0.6609907    -1.8840444    -1.1352195
S           0.7759092    -3.0493451    -2.4641694
C          -0.8992829    -3.4284969    -2.2088575
H          -1.4197143    -4.1381891    -2.8367267
22
076_C10H8N2OS_2-0-18-17 (75,) energy =    -968.7936980
N           1.7790729    -1.1066639    -0.8143883
H           2.3033692    -0.6613538    -1.5553784
C           2.3712294    -1.1960879     0.4461211
C           5.7605516     1.3432804     1.1885879
H           6.6233499     1.9721083     1.3910337
C           5.5603593     0.1712385     1.9230452
H           6.2674492    -0.1135761     2.6972220
C           4.4521076    -0.6318698     1.6673273
H           4.2706757    -1.5390520     2.2342255
C           3.5391344    -0.2793842     0.6638928
C           3.7380716     0.9042774    -0.0612600
H           3.0112101     1.2242968    -0.8031346
C           4.8445972     1.7120643     0.2019010
H           4.9851415     2.6332020    -0.3568016
O           1.9739376    -1.9719906     1.2969922
C          -1.4080269    -2.5998922    -1.2865508
H          -2.4593745    -2.5412702    -1.0292922
N          -0.5448179    -1.6643635    -0.7682783
C           0.6684396    -1.8803653    -1.1764218
S           0.8461348    -3.2745332    -2.2481386
C          -0.8617594    -3.5351056    -2.1181301
H          -1.3564682    -4.3339228    -2.6533078
22
076_C10H8N2OS_2-0-18-17 (90,) energy =    -968.7941215
N           1.9451652    -1.3175510    -0.9697839
H           2.1785984    -0.5322362    -1.5624035
C           2.5245292    -1.3855186     0.2944510
C           5.6373066     1.4256079     1.2536397
H           6.4304542     2.1217473     1.5126244
C           5.5495457     0.1903222     1.9008278
H           6.2747475    -0.0773973     2.6642643
C           4.5297085    -0.6986314     1.5721667
H           4.4349890    -1.6567962     2.0720786
C           3.5942993    -0.3710467     0.5806470
C           3.6813383     0.8751011    -0.0561978
H           2.9390089     1.1808437    -0.7893831
C           4.6976317     1.7692605     0.2805504
H           4.7495115     2.7363923    -0.2116141
O           2.2149978    -2.2517189     1.0958223
C          -1.4158155    -2.3620315    -1.4780302
H          -2.4564687    -2.0661076    -1.4117065
N          -0.4433655    -1.4604488    -1.1164586
C           0.7399312    -1.9811921    -1.2622703
S           0.7514269    -3.6383957    -1.8418014
C          -0.9771401    -3.5890314    -1.8898009
H          -1.5623715    -4.4436264    -2.2006295
22
076_C10H8N2OS_2-0-18-17 (105,) energy =    -968.7959890
N           1.9757589    -1.3626454    -1.0070758
H           2.0830028    -0.4873682    -1.5031893
C           2.6103687    -1.4703859     0.2313548
C           5.5914839     1.4515256     1.2783437
H           6.3525799     2.1740901     1.5600406
C           5.5626414     0.1918745     1.8819561
H           6.3017025    -0.0691742     2.6342817
C           4.5841747    -0.7310527     1.5232162
H           4.5365918    -1.7100403     1.9879224
C           3.6299851    -0.4134055     0.5457797
C           3.6594118     0.8569242    -0.0478086
H           2.9077141     1.1565839    -0.7738491
C           4.6346159     1.7843308     0.3183137
H           4.6416145     2.7683164    -0.1419607
O           2.3917270    -2.4061587     0.9835368
C          -1.3928424    -2.2882748    -1.6307533
H          -2.4081144    -1.9183034    -1.7156395
N          -0.3869497    -1.3975048    -1.3352355
C           0.7595834    -2.0119705    -1.2785203
S           0.6927310    -3.7411217    -1.5534240
C          -1.0200349    -3.5938766    -1.7744088
H          -1.6417088    -4.4563649    -1.9714205
22
076_C10H8N2OS_2-0-18-17 (120,) energy =    -968.7988152
N           2.0031508    -1.4112028    -1.0035698
H           2.0800841    -0.5196456    -1.4771016
C           2.6747506    -1.5364667     0.2134697
C           5.5516773     1.4734554     1.2930283
H           6.2876495     2.2188316     1.5818865
C           5.6035965     0.1883483     1.8388623
H           6.3806234    -0.0694310     2.5530502
C           4.6576358    -0.7642700     1.4709840
H           4.6732319    -1.7642259     1.8911321
C           3.6555441    -0.4494889     0.5415229
C           3.6032423     0.8460132     0.0064972
H           2.8113672     1.1405178    -0.6777280
C           4.5466249     1.8020573     0.3819708
H           4.4909792     2.8047816    -0.0321469
O           2.5179865    -2.5112708     0.9322595
C          -1.3453206    -2.2292032    -1.8042698
H          -2.3110629    -1.8176455    -2.0743457
N          -0.2971876    -1.3673042    -1.5717311
C           0.7786549    -2.0381899    -1.2689286
S           0.5852564    -3.7763446    -1.1936594
C          -1.0772604    -3.5574272    -1.6481001
H          -1.7503202    -4.3986345    -1.7387169
22
076_C10H8N2OS_2-0-18-17 (135,) energy =    -968.8021941
N           1.9615260    -1.3786247    -0.9681498
H           2.0298039    -0.4893880    -1.4473918
C           2.6793397    -1.5352388     0.2125589
C           5.5507151     1.4759968     1.2936869
H           6.2864999     2.2218498     1.5817355
C           5.6406258     0.1738073     1.7920601
H           6.4469756    -0.0967370     2.4679604
C           4.6953160    -0.7799303     1.4254126
H           4.7406586    -1.7936760     1.8088052
C           3.6556415    -0.4476180     0.5446869
C           3.5650674     0.8645715     0.0573277
H           2.7440775     1.1695760    -0.5868224
C           4.5084956     1.8209157     0.4315399
H           4.4240499     2.8364169     0.0552129
O           2.5600023    -2.5402564     0.8999756
C          -1.3138471    -2.2527888    -1.9467886
H          -2.2317591    -1.8678013    -2.3760595
N          -0.2587682    -1.3878185    -1.7575206
C           0.7551905    -2.0256179    -1.2417108
S           0.4867872    -3.7200398    -0.8896783
C          -1.1144434    -3.5410679    -1.5491585
H          -1.8080145    -4.3701908    -1.5671075
22
076_C10H8N2OS_2-0-18-17 (150,) energy =    -968.8053388
N           1.8825310    -1.2910241    -0.9026942
H           1.9500762    -0.4120128    -1.3996418
C           2.6554935    -1.4968223     0.2275735
C           5.5882664     1.4586309     1.2910557
H           6.3403459     2.1903957     1.5730327
C           5.6852584     0.1420188     1.7485105
H           6.5134264    -0.1537676     2.3863565
C           4.7194048    -0.7940041     1.3896094
H           4.7704190    -1.8189032     1.7413414
C           3.6510789    -0.4281203     0.5580695
C           3.5534728     0.8982162     0.1118959
H           2.7119717     1.2267608    -0.4928909
C           4.5182411     1.8360930     0.4778603
H           4.4290226     2.8625442     0.1337260
O           2.5560841    -2.5285511     0.8816223
C          -1.2790406    -2.3101001    -2.0693010
H          -2.1497008    -1.9871231    -2.6285782
N          -0.2416410    -1.4212265    -1.8910331
C           0.7133309    -1.9835376    -1.2026271
S           0.4084176    -3.6261681    -0.6719752
C          -1.1227471    -3.5382434    -1.5011691
H          -1.8127706    -4.3704538    -1.4883200
22
076_C10H8N2OS_2-0-18-17 (165,) energy =    -968.8075176
N           1.7809429    -1.1983554    -0.8016264
H           1.8675301    -0.3366711    -1.3244732
C           2.6097142    -1.4506580     0.2730946
C           5.6337916     1.4351231     1.2677928
H           6.4095690     2.1491054     1.5304286
C           5.7310088     0.1072532     1.6912827
H           6.5830021    -0.2149885     2.2832840
C           4.7350136    -0.8063258     1.3574522
H           4.7864103    -1.8395010     1.6840310
C           3.6353592    -0.4060288     0.5849353
C           3.5381163     0.9313954     0.1729901
H           2.6739150     1.2842275    -0.3842079
C           4.5332904     1.8465939     0.5138003
H           4.4442671     2.8817749     0.1968013
O           2.5209634    -2.4982514     0.9057942
C          -1.2252963    -2.3933978    -2.1777789
H          -2.0337352    -2.1448538    -2.8559283
N          -0.2170430    -1.4737321    -1.9889348
C           0.6619396    -1.9439490    -1.1468876
S           0.3229010    -3.5359852    -0.4921905
C          -1.1194725    -3.5543365    -1.4739535
H          -1.7950133    -4.3982798    -1.4559990
22
076_C10H8N2OS_2-0-18-17 (180,) energy =    -968.8083629
N           1.6601284    -1.1029863    -0.6855991
H           1.7819354    -0.2722035    -1.2497766
C           2.5474150    -1.4045927     0.3265383
C           5.6693164     1.4061217     1.2246716
H           6.4705521     2.1008652     1.4611721
C           5.7641304     0.0680266     1.6152898
H           6.6395554    -0.2812421     2.1555129
C           4.7356938    -0.8211388     1.3153940
H           4.7849650    -1.8617568     1.6178757
C           3.6054577    -0.3850918     0.6094724
C           3.5108324     0.9622734     0.2303927
H           2.6245628     1.3404338    -0.2727171
C           4.5388571     1.8526116     0.5377649
H           4.4524494     2.8958301     0.2474964
O           2.4675730    -2.4635511     0.9419174
C          -1.1588485    -2.4621030    -2.2834670
H          -1.8878593    -2.2839903    -3.0658213
N          -0.1821038    -1.5155807    -2.0646914
C           0.5989013    -1.8989064    -1.0918427
S           0.2127672    -3.4469106    -0.3607002
C          -1.1225938    -3.5598950    -1.4787761
H          -1.7827340    -4.4161126    -1.4730117
