24
008_C12H11N_0-5-6-10 (-165,) energy =    -518.6543121
N          -0.0389918    -1.0828397    -1.1030484
C          -1.2603956    -0.8253006    -0.6252525
C          -1.5199087     0.1011803     0.3857369
C          -0.4390099     0.7958576     0.9240691
C           0.8414777     0.5387400     0.4358447
C           1.0016336    -0.4101835    -0.5808688
C           2.3536749    -0.7372521    -1.2061039
C           5.8347082     0.5597421     1.0198375
C           5.1610833    -0.6091720     1.3820688
C           4.0416810    -1.0244099     0.6612748
C           3.5736093    -0.2834373    -0.4336770
C           4.2592417     0.8858316    -0.7866456
C           5.3802767     1.3063838    -0.0677002
H          -2.0750092    -1.3928159    -1.0738468
H          -2.5343131     0.2666847     0.7361714
H          -0.5872167     1.5277447     1.7140746
H           1.7042812     1.0607409     0.8352781
H           2.3802590    -1.8220392    -1.3612220
H           2.3693094    -0.2960576    -2.2120294
H           6.7090315     0.8827771     1.5786124
H           5.5106193    -1.2004677     2.2245196
H           3.5232204    -1.9369693     0.9474604
H           3.9139974     1.4699714    -1.6370864
H           5.9000313     2.2148113    -0.3611540
24
008_C12H11N_0-5-6-10 (-150,) energy =    -518.6544670
N           0.0173640    -1.2088181    -0.9758790
C          -1.1965201    -1.0233511    -0.4438346
C          -1.4980896    -0.0122093     0.4678796
C          -0.4717094     0.8532274     0.8443925
C           0.7972418     0.6724055     0.2992433
C           1.0036029    -0.3721580    -0.6118902
C           2.3476298    -0.6063451    -1.2904039
C           5.8310831     0.4524727     1.0560897
C           5.0679018    -0.6692140     1.3912297
C           3.9474621    -1.0058697     0.6333440
C           3.5675789    -0.2318381    -0.4735353
C           4.3414210     0.8887513    -0.7983320
C           5.4648870     1.2310478    -0.0414897
H          -1.9664348    -1.7247675    -0.7630981
H          -2.5020693     0.0880780     0.8693784
H          -0.6550823     1.6564396     1.5535331
H           1.6204983     1.3235249     0.5748962
H           2.3798694    -1.6646117    -1.5716790
H           2.3566214    -0.0439863    -2.2346489
H           6.7058727     0.7142443     1.6453429
H           5.3483756    -1.2840742     2.2426206
H           3.3578593    -1.8805087     0.8991924
H           4.0650177     1.4967992    -1.6571824
H           6.0535015     2.1035404    -0.3131934
24
008_C12H11N_0-5-6-10 (-135,) energy =    -518.6545615
N           0.1185519    -1.2980606    -0.8311990
C          -1.0806831    -1.1759233    -0.2467052
C          -1.4503051    -0.0922825     0.5476622
C          -0.5129748     0.9222366     0.7466230
C           0.7377109     0.8079054     0.1473722
C           1.0165403    -0.3185480    -0.6403100
C           2.3510803    -0.4803639    -1.3536839
C           5.8265035     0.3588925     1.0946823
C           5.0031857    -0.7325359     1.3854676
C           3.8856808    -0.9975102     0.5959766
C           3.5688069    -0.1803345    -0.4996933
C           4.4015907     0.9089484    -0.7806892
C           5.5225440     1.1790874     0.0087517
H          -1.7790463    -1.9927245    -0.4242575
H          -2.4378038    -0.0486300     0.9973104
H          -0.7522798     1.7868725     1.3603994
H           1.4962649     1.5720775     0.2880262
H           2.3854692    -1.5085313    -1.7292808
H           2.3610596     0.1734301    -2.2366833
H           6.6985414     0.5650937     1.7095455
H           5.2341436    -1.3792514     2.2281044
H           3.2481370    -1.8477049     0.8278221
H           4.1742461     1.5494080    -1.6303636
H           6.1572531     2.0291074    -0.2283108
24
008_C12H11N_0-5-6-10 (-120,) energy =    -518.6546393
N           0.2376048    -1.3481735    -0.6577592
C          -0.9423544    -1.2651134    -0.0271832
C          -1.3988407    -0.1174572     0.6170089
C          -0.5747950     1.0094671     0.6092702
C           0.6541918     0.9361531    -0.0378366
C           1.0255316    -0.2619037    -0.6663266
C           2.3514164    -0.3873050    -1.4001344
C           5.8079253     0.2635442     1.1322657
C           4.9677278    -0.8321426     1.3495555
C           3.8574321    -1.0372997     0.5325761
C           3.5659039    -0.1539507    -0.5176096
C           4.4149371     0.9388119    -0.7259784
C           5.5284665     1.1486470     0.0916728
H          -1.5510287    -2.1681951    -0.0417921
H          -2.3663435    -0.1089897     1.1100306
H          -0.8854332     1.9281079     1.1002988
H           1.3276240     1.7883549    -0.0553362
H           2.3808570    -1.3921345    -1.8338866
H           2.3718799     0.3248902    -2.2353893
H           6.6742171     0.4229731     1.7687880
H           5.1796802    -1.5287921     2.1566527
H           3.2048967    -1.8897996     0.7065113
H           4.2073071     1.6293905    -1.5408160
H           6.1767167     2.0025030    -0.0881956
24
008_C12H11N_0-5-6-10 (-105,) energy =    -518.6547861
N           0.3771030    -1.3578920    -0.4855266
C          -0.7828341    -1.3190556     0.1846211
C          -1.3534679    -0.1488003     0.6806775
C          -0.6724546     1.0514883     0.4713742
C           0.5352269     1.0254689    -0.2186911
C           1.0285646    -0.2013812    -0.6859624
C           2.3473038    -0.2833528    -1.4351937
C           5.7943329     0.1553875     1.1564135
C           4.9214061    -0.9242175     1.3171339
C           3.8143848    -1.0603118     0.4813202
C           3.5598439    -0.1227242    -0.5304968
C           4.4396928     0.9544138    -0.6827382
C           5.5500641     1.0934993     0.1539434
H          -1.2798171    -2.2777184     0.3266458
H          -2.2996269    -0.1785960     1.2126832
H          -1.0768202     1.9908869     0.8394323
H           1.0974251     1.9385436    -0.3939751
H           2.3763583    -1.2577474    -1.9337357
H           2.3759213     0.4870345    -2.2153905
H           6.6582830     0.2617611     1.8071017
H           5.1046674    -1.6616487     2.0945330
H           3.1337163    -1.8983847     0.6099260
H           4.2593923     1.6875241    -1.4663732
H           6.2239228     1.9357755     0.0191752
24
008_C12H11N_0-5-6-10 (-90,) energy =    -518.6549590
N           0.5248429    -1.3207075    -0.2857990
C          -0.6218571    -1.3097217     0.4052807
C          -1.3218212    -0.1483026     0.7288706
C          -0.7922417     1.0725861     0.3109915
C           0.4019402     1.0756477    -0.4045719
C           1.0330589    -0.1436480    -0.6861788
C           2.3499626    -0.1942634    -1.4399971
C           5.8015465     0.0523535     1.1710533
C           4.9237098    -1.0314090     1.2601552
C           3.8140740    -1.1089957     0.4199440
C           3.5638802    -0.1033606    -0.5250175
C           4.4478034     0.9783393    -0.6060786
C           5.5604181     1.0575541     0.2349811
H          -1.0009367    -2.2841464     0.7102990
H          -2.2514027    -0.2020833     1.2874809
H          -1.3014952     2.0057708     0.5374390
H           0.8456405     2.0077968    -0.7430953
H           2.3763496    -1.1377623    -1.9959804
H           2.3875708     0.6213689    -2.1710850
H           6.6670809     0.1105297     1.8257682
H           5.1051404    -1.8197605     1.9863608
H           3.1268287    -1.9476253     0.4942778
H           4.2681222     1.7641170    -1.3370403
H           6.2372899     1.9045182     0.1559402
24
008_C12H11N_0-5-6-10 (-75,) energy =    -518.6547499
N           0.6592984    -1.2242698    -0.0580919
C          -0.4881096    -1.2154199     0.6286149
C          -1.3162800    -0.0985170     0.7433208
C          -0.9210171     1.0758477     0.1050823
C           0.2740066     1.0806030    -0.6114059
C           1.0391924    -0.0910486    -0.6713279
C           2.3613233    -0.1351570    -1.4187306
C           5.8263466    -0.0530641     1.1859315
C           4.9890536    -1.1714053     1.1640556
C           3.8746185    -1.2002234     0.3264336
C           3.5778311    -0.1096852    -0.5035416
C           4.4220492     1.0061340    -0.4721576
C           5.5397112     1.0373064     0.3648574
H          -0.7607605    -2.1539050     1.1094814
H          -2.2394335    -0.1525615     1.3124447
H          -1.5319412     1.9729823     0.1633109
H           0.6133600     1.9786258    -1.1199319
H           2.3759794    -1.0546509    -2.0161165
H           2.4137655     0.7071649    -2.1170365
H           6.6963083    -0.0337012     1.8371265
H           5.2060229    -2.0257603     1.8003737
H           3.2158096    -2.0633729     0.3192446
H           4.2062153     1.8589726    -1.1125354
H           6.1845828     1.9124592     0.3725000
24
008_C12H11N_0-5-6-10 (-60,) energy =    -518.6540784
N           0.7769065    -1.0593143     0.1960464
C          -0.3734876    -1.0450437     0.8758421
C          -1.3227341    -0.0266150     0.7756952
C          -1.0520744     1.0353476    -0.0845836
C           0.1454677     1.0321875    -0.7981775
C           1.0365085    -0.0353348    -0.6327337
C           2.3582586    -0.0833229    -1.3855028
C           5.8555677    -0.1470975     1.1732901
C           5.0797492    -1.2979550     1.0158558
C           3.9544678    -1.2820803     0.1919914
C           3.5850691    -0.1137455    -0.4886746
C           4.3687651     1.0344140    -0.3224928
C           5.4962898     1.0211691     0.5009731
H          -0.5461036    -1.8943994     1.5356137
H          -2.2407071    -0.0694745     1.3540985
H          -1.7583718     1.8537950    -0.1977497
H           0.3896489     1.8455997    -1.4756648
H           2.3511148    -0.9830140    -2.0149901
H           2.4172471     0.7759419    -2.0621392
H           6.7341875    -0.1625059     1.8129286
H           5.3530207    -2.2131286     1.5350838
H           3.3451562    -2.1735843     0.0830237
H           4.0962649     1.9485299    -0.8461619
H           6.0931346     1.9227027     0.6139896
24
008_C12H11N_0-5-6-10 (-45,) energy =    -518.6531196
N           0.8798682    -0.8549413     0.4037219
C          -0.2827617    -0.8618041     1.0637761
C          -1.3422178     0.0007718     0.7806247
C          -1.1746467     0.9215330    -0.2521000
C           0.0335728     0.9383630    -0.9460776
C           1.0400740     0.0303774    -0.5911679
C           2.3668653     0.0072106    -1.3407189
C           5.8946873    -0.2469076     1.1589363
C           5.1298981    -1.3882502     0.9073477
C           3.9928067    -1.3101160     0.1037401
C           3.6002963    -0.0900661    -0.4627090
C           4.3740565     1.0475774    -0.2034708
C           5.5128536     0.9732595     0.6008030
H          -0.3704811    -1.5966019     1.8631311
H          -2.2632650    -0.0493109     1.3535557
H          -1.9678167     1.6184583    -0.5104245
H           0.1992195     1.6466592    -1.7531888
H           2.3467278    -0.8533124    -2.0250471
H           2.4307723     0.8994828    -1.9732346
H           6.7824996    -0.3096514     1.7828171
H           5.4203837    -2.3434988     1.3373085
H           3.3949617    -2.1975203    -0.0792233
H           4.0837332     2.0021196    -0.6378649
H           6.1015313     1.8678818     0.7874264
24
008_C12H11N_0-5-6-10 (-30,) energy =    -518.6521425
N           1.0618647     0.5907530     0.8332475
C          -0.0980792     1.2419819     0.9782443
C          -1.3263172     0.7483451     0.5405923
C          -1.3424477    -0.4984414    -0.0844096
C          -0.1415669    -1.1850545    -0.2417117
C           1.0445182    -0.6083183     0.2357966
C           2.3671609    -1.3568820     0.0986555
C           5.9066796     1.1095000    -0.2771686
C           5.3586606     0.8571381     0.9825325
C           4.2173914     0.0654759     1.1055992
C           3.6026677    -0.4886951    -0.0240735
C           4.1615065    -0.2276694    -1.2804862
C           5.3037415     0.5644897    -1.4110562
H          -0.0380102     2.2128821     1.4684450
H          -2.2357231     1.3246583     0.6819887
H          -2.2730516    -0.9259669    -0.4488145
H          -0.1174064    -2.1563231    -0.7288783
H           2.4739336    -2.0053438     0.9813759
H           2.2978190    -2.0333934    -0.7609907
H           6.7981229     1.7239183    -0.3729676
H           5.8217588     1.2773483     1.8717326
H           3.7916030    -0.1205803     2.0876583
H           3.6980452    -0.6521269    -2.1687102
H           5.7227721     0.7512831    -2.3966020
24
008_C12H11N_0-5-6-10 (-15,) energy =    -518.6514390
N           1.0763330     0.6885218     0.5499201
C          -0.0855501     1.3350995     0.7127093
C          -1.3340131     0.7528623     0.5056725
C          -1.3728357    -0.5836659     0.1045581
C          -0.1726185    -1.2649159    -0.0686363
C           1.0376245    -0.5932475     0.1672057
C           2.3582812    -1.3409526    -0.0013847
C           5.9267875     1.0993240    -0.1883759
C           5.3815341     0.7455713     1.0478142
C           4.2296059    -0.0376389     1.1077061
C           3.6019338    -0.4809697    -0.0628689
C           4.1575203    -0.1206626    -1.2957125
C           5.3102487     0.6639606    -1.3617116
H          -0.0075053     2.3760451     1.0237995
H          -2.2434165     1.3282209     0.6509979
H          -2.3214827    -1.0835768    -0.0737733
H          -0.1650578    -2.3052218    -0.3841984
H           2.4497690    -2.0505882     0.8341501
H           2.2901236    -1.9594489    -0.9052563
H           6.8266324     1.7070822    -0.2357230
H           5.8553535     1.0793200     1.9674685
H           3.8081714    -0.3058125     2.0734629
H           3.6834261    -0.4590632    -2.2147606
H           5.7276804     0.9304813    -2.3293982
24
008_C12H11N_0-5-6-10 (0,) energy =    -518.6511917
N           1.0627663     0.7522058     0.2091003
C          -0.1021161     1.4031890     0.3332648
C          -1.3435018     0.7737450     0.3787556
C          -1.3716555    -0.6194698     0.2889196
C          -0.1696547    -1.3063362     0.1595606
C           1.0335018    -0.5825504     0.1234774
C           2.3556892    -1.3337158    -0.0178163
C           5.9343164     1.0975703    -0.1116738
C           5.4910370     0.5467406     1.0913853
C           4.3347728    -0.2343251     1.1189618
C           3.6023382    -0.4771655    -0.0482715
C           4.0580660     0.0805138    -1.2489216
C           5.2127158     0.8618240    -1.2836499
H          -0.0315801     2.4880850     0.3995452
H          -2.2553307     1.3545899     0.4807886
H          -2.3146620    -1.1593345     0.3191085
H          -0.1543763    -2.3910660     0.0868525
H           2.4270464    -2.0540922     0.8086212
H           2.3039179    -1.9416937    -0.9318040
H           6.8365425     1.7030820    -0.1370529
H           6.0468898     0.7214167     2.0091093
H           3.9958396    -0.6615929     2.0602911
H           3.5006315    -0.0984272    -2.1656916
H           5.5509185     1.2843887    -2.2264022
24
008_C12H11N_0-5-6-10 (15,) energy =    -518.6514407
N           1.0225883     0.7439987    -0.0623427
C          -0.1393509     1.3927718     0.0913774
C          -1.3502661     0.7626657     0.3692479
C          -1.3489445    -0.6276094     0.4948564
C          -0.1480315    -1.3116869     0.3382552
C           1.0222631    -0.5891079     0.0559928
C           2.3403425    -1.3351169    -0.1377505
C           5.9277218     1.0813631    -0.0222774
C           5.4631300     0.4566830     1.1357345
C           4.3041915    -0.3199160     1.0939436
C           3.5910442    -0.4841711    -0.0991775
C           4.0672780     0.1476348    -1.2541102
C           5.2249863     0.9242069    -1.2186820
H          -0.0928755     2.4760817    -0.0122230
H          -2.2611952     1.3420917     0.4860828
H          -2.2665709    -1.1671831     0.7150230
H          -0.1092295    -2.3939429     0.4334473
H           2.4041827    -2.1242509     0.6221954
H           2.2894269    -1.8597895    -1.1031396
H           6.8320836     1.6835596     0.0059323
H           6.0044056     0.5695148     2.0716814
H           3.9489372    -0.8062448     2.0001489
H           3.5229285     0.0321492    -2.1883736
H           5.5797860     1.4058659    -2.1263085
24
008_C12H11N_0-5-6-10 (30,) energy =    -518.6521479
N           0.9757079     0.7092078    -0.3549756
C          -0.1824959     1.3592890    -0.1905398
C          -1.3367894     0.7716248     0.3250392
C          -1.2759191    -0.5733966     0.6894844
C          -0.0762125    -1.2601677     0.5245777
C           1.0315661    -0.5831564    -0.0065216
C           2.3472160    -1.3239816    -0.2250757
C           5.9302889     1.0872597     0.0624722
C           5.4881458     0.3492227     1.1608763
C           4.3310353    -0.4254623     1.0624962
C           3.5981258    -0.4752424    -0.1290465
C           4.0510221     0.2710722    -1.2239853
C           5.2067496     1.0458529    -1.1313739
H          -0.1832220     2.4077966    -0.4858010
H          -2.2483136     1.3506050     0.4393670
H          -2.1465991    -1.0775495     1.1009649
H           0.0072617    -2.3073097     0.8034376
H           2.4030064    -2.1543567     0.4886771
H           2.3049928    -1.7882736    -1.2215824
H           6.8329908     1.6883399     0.1344701
H           6.0451863     0.3718469     2.0940983
H           3.9938432    -1.0011419     1.9221195
H           3.4879628     0.2483368    -2.1530766
H           5.5434882     1.6174529    -1.9925194
24
008_C12H11N_0-5-6-10 (45,) energy =    -518.6531200
N           0.8984269     0.6230170    -0.6433658
C          -0.2497917     1.2823123    -0.4584438
C          -1.3192234     0.7854282     0.2874134
C          -1.1784637    -0.4723404     0.8710061
C           0.0143022    -1.1685487     0.6856150
C           1.0321297    -0.5884023    -0.0829415
C           2.3437791    -1.3264037    -0.3229851
C           5.9101059     1.0827335     0.1586069
C           5.4869292     0.2382725     1.1853844
C           4.3365004    -0.5356272     1.0225625
C           3.5922692    -0.4798785    -0.1620715
C           4.0259830     0.3724793    -1.1857055
C           5.1750163     1.1468600    -1.0272109
H          -0.3166586     2.2614725    -0.9310831
H          -2.2275292     1.3684972     0.4061783
H          -1.9805718    -0.9029532     1.4649297
H           0.1590599    -2.1492552     1.1304471
H           2.3911242    -2.1917594     0.3472556
H           2.3156768    -1.7302721    -1.3452877
H           6.8071709     1.6844064     0.2795157
H           6.0523189     0.1779246     2.1119008
H           4.0134847    -1.1944806     1.8261115
H           3.4516871     0.4343758    -2.1050656
H           5.4979705     1.8015244    -1.8327073
24
008_C12H11N_0-5-6-10 (60,) energy =    -518.6540786
N           0.7893374     0.4713203    -0.9092744
C          -0.3499183     1.1419392    -0.7132338
C          -1.3097439     0.7814394     0.2338579
C          -1.0625390    -0.3433709     1.0178962
C           0.1232531    -1.0499435     0.8230582
C           1.0268807    -0.6126699    -0.1531600
C           2.3365895    -1.3466903    -0.4018007
C           5.8749813     1.0671727     0.2569479
C           5.4941377     0.1061667     1.1936506
C           4.3534094    -0.6686662     0.9747699
C           3.5778451    -0.4984401    -0.1783220
C           3.9689003     0.4704298    -1.1126877
C           5.1074485     1.2464147    -0.8962571
H          -0.5041935     2.0135105    -1.3481611
H          -2.2178499     1.3655897     0.3485222
H          -1.7780146    -0.6653595     1.7701774
H           0.3488246    -1.9300142     1.4187047
H           2.3773919    -2.2351113     0.2375331
H           2.3272930    -1.7033002    -1.4402941
H           6.7639639     1.6703416     0.4219936
H           6.0843956    -0.0438705     2.0941202
H           4.0639268    -1.4184378     1.7083436
H           3.3660905     0.6219256    -2.0024268
H           5.3975478     1.9922739    -1.6320224
24
008_C12H11N_0-5-6-10 (75,) energy =    -518.6547503
N           0.6693405     0.2736996    -1.1396869
C          -0.4668868     0.9520818    -0.9472231
C          -1.3031536     0.7698488     0.1545541
C          -0.9288274    -0.1738860     1.1095166
C           0.2543850    -0.8854519     0.9221015
C           1.0290885    -0.6344970    -0.2175029
C           2.3394149    -1.3644979    -0.4598728
C           5.8454279     1.0542061     0.3508419
C           5.5363129    -0.0309798     1.1706213
C           4.4056322    -0.8069998     0.9058405
C           3.5702772    -0.5137626    -0.1781026
C           3.8893523     0.5797597    -0.9957991
C           5.0169183     1.3568129    -0.7327666
H          -0.7232197     1.6774469    -1.7182459
H          -2.2165018     1.3483561     0.2553262
H          -1.5468608    -0.3537652     1.9853830
H           0.5773441    -1.6274016     1.6469527
H           2.3730880    -2.2683906     0.1579669
H           2.3527575    -1.6860853    -1.5081895
H           6.7256186     1.6591117     0.5524146
H           6.1740204    -0.2768707     2.0159949
H           4.1725505    -1.6540883     1.5478140
H           3.2376183     0.8230075    -1.8295776
H           5.2510839     2.2004057    -1.3772856
24
008_C12H11N_0-5-6-10 (90,) energy =    -518.6549603
N           0.5307273     0.0835714    -1.2954911
C          -0.6047620     0.7652324    -1.0991640
C          -1.3090674     0.7690368     0.1039841
C          -0.7968972     0.0222821     1.1649653
C           0.3855538    -0.6876613     0.9753483
C           1.0223211    -0.6340239    -0.2720328
C           2.3273762    -1.3680437    -0.5232808
C           5.8198746     1.0108774     0.4483030
C           5.5533825    -0.1613078     1.1552484
C           4.4274100    -0.9265145     0.8417247
C           3.5548702    -0.5348952    -0.1795624
C           3.8314193     0.6459334    -0.8837983
C           4.9540810     1.4116603    -0.5729066
H          -0.9703509     1.3337326    -1.9532145
H          -2.2289746     1.3374634     0.2025255
H          -1.3103611    -0.0075613     2.1225288
H           0.8158597    -1.2774291     1.7799541
H           2.3464686    -2.2959323     0.0595978
H           2.3528393    -1.6433103    -1.5833459
H           6.6956660     1.6078220     0.6887743
H           6.2205727    -0.4835750     1.9507212
H           4.2280521    -1.8421713     1.3947086
H           3.1537039     0.9614563    -1.6725883
H           5.1550902     2.3234432    -1.1297439
24
008_C12H11N_0-5-6-10 (105,) energy =    -518.6547876
N           0.3795626    -0.0958456    -1.3880751
C          -0.7697963     0.5584448    -1.1711748
C          -1.3425373     0.7242665     0.0880204
C          -0.6753711     0.1813663     1.1873388
C           0.5211754    -0.4965012     0.9774364
C           1.0175474    -0.6179351    -0.3286574
C           2.3250030    -1.3388701    -0.6078096
C           5.8108179     0.9675760     0.5423943
C           5.5427867    -0.2504906     1.1661286
C           4.4193204    -0.9943486     0.7962132
C           3.5504027    -0.5349650    -0.1995310
C           3.8293426     0.6917806    -0.8198344
C           4.9492868     1.4361740    -0.4534324
H          -1.2558809     0.9673521    -2.0558807
H          -2.2796527     1.2609252     0.2018054
H          -1.0817792     0.2847497     2.1901323
H           1.0725323    -0.9258439     1.8093991
H           2.3345713    -2.3011940    -0.0816958
H           2.3547787    -1.5508999    -1.6816632
H           6.6845051     1.5478035     0.8272071
H           6.2071910    -0.6255283     1.9404958
H           4.2196664    -1.9466740     1.2832250
H           3.1580504     1.0597988    -1.5919186
H           5.1517261     2.3837202    -0.9462794
24
008_C12H11N_0-5-6-10 (120,) energy =    -518.6546389
N           0.2390375    -0.2605942    -1.4230106
C          -0.9310957     0.3438306    -1.1738234
C          -1.3869087     0.6556172     0.1050868
C          -0.5729550     0.3233187     1.1895289
C           0.6458711    -0.3007668     0.9454222
C           1.0170949    -0.5820097    -0.3779182
C           2.3320246    -1.2763736    -0.6954363
C           5.8237124     0.9163080     0.6410899
C           5.5206522    -0.3231526     1.2034205
C           4.3956134    -1.0308327     0.7720986
C           3.5584440    -0.5141093    -0.2231589
C           3.8736472     0.7338235    -0.7811188
C           4.9954636     1.4422255    -0.3544603
H          -1.5320871     0.5894271    -2.0483049
H          -2.3462440     1.1447517     0.2451807
H          -0.8833386     0.5483038     2.2066535
H           1.3115133    -0.5644113     1.7624209
H           2.3331681    -2.2759167    -0.2413940
H           2.3630606    -1.4166503    -1.7808581
H           6.6988538     1.4687460     0.9727205
H           6.1591329    -0.7433758     1.9763456
H           4.1693263    -2.0008525     1.2100154
H           3.2308125     1.1480265    -1.5544185
H           5.2258762     2.4064522    -0.8003361
24
008_C12H11N_0-5-6-10 (135,) energy =    -518.6545574
N           0.1262674    -0.4452141    -1.4113081
C          -1.0651487     0.1033140    -1.1385906
C          -1.4318406     0.5769938     0.1196243
C          -0.5000515     0.4754767     1.1534843
C           0.7425156    -0.0902485     0.8843942
C           1.0189358    -0.5443324    -0.4134742
C           2.3438561    -1.2084765    -0.7590329
C           5.8507167     0.8565386     0.7291252
C           5.5274817    -0.4100767     1.2144260
C           4.3961150    -1.0757784     0.7352992
C           3.5720801    -0.4898063    -0.2324834
C           3.9083005     0.7852096    -0.7120850
C           5.0362007     1.4524810    -0.2378445
H          -1.7593694     0.1674220    -1.9754618
H          -2.4129080     1.0137641     0.2808016
H          -0.7373316     0.8332501     2.1521226
H           1.4967355    -0.1765459     1.6608319
H           2.3350835    -2.2365545    -0.3714532
H           2.3810719    -1.2894800    -1.8505827
H           6.7308497     1.3762350     1.0983237
H           6.1551058    -0.8841324     1.9647254
H           4.1535706    -2.0665695     1.1138820
H           3.2777329     1.2544152    -1.4639323
H           5.2821535     2.4383093    -0.6241935
24
008_C12H11N_0-5-6-10 (150,) energy =    -518.6544672
N           0.0225043    -0.6142919    -1.3873327
C          -1.1850649    -0.1345317    -1.0672220
C          -1.4821128     0.4676027     0.1550077
C          -0.4579430     0.5741859     1.0951639
C           0.8045062     0.0796259     0.7761224
C           1.0066083    -0.5111833    -0.4784395
C           2.3426493    -1.1205103    -0.8850121
C           5.8511277     0.7863254     0.7951797
C           5.4613251    -0.4769581     1.2391795
C           4.3300598    -1.0920184     0.6967868
C           3.5710547    -0.4585519    -0.2944688
C           3.9739874     0.8121604    -0.7320001
C           5.1024515     1.4291783    -0.1943586
H          -1.9534993    -0.2353874    -1.8327364
H          -2.4810626     0.8419785     0.3579216
H          -0.6379268     1.0370741     2.0621185
H           1.6260832     0.1516082     1.4814799
H           2.3331118    -2.1832560    -0.6049894
H           2.3798867    -1.0994913    -1.9796578
H           6.7320834     1.2662299     1.2130975
H           6.0380142    -0.9881093     2.0057738
H           4.0358069    -2.0803894     1.0435909
H           3.3962092     1.3182748    -1.5022622
H           5.4007348     2.4121617    -0.5497856
24
008_C12H11N_0-5-6-10 (165,) energy =    -518.6543121
N          -0.0359435    -0.7846264    -1.3275091
C          -1.2558419    -0.3807559    -0.9598929
C          -1.5175227     0.3385358     0.2071435
C          -0.4405536     0.6503215     1.0339766
C           0.8383384     0.2355475     0.6644765
C           1.0008525    -0.4817961    -0.5266677
C           2.3508949    -1.0097521    -1.0005021
C           5.8360952     0.7267383     0.8945895
C           5.3613336    -0.5185016     1.3077265
C           4.2389365    -1.0789928     0.6941007
C           3.5722320    -0.4083273    -0.3391421
C           4.0606109     0.8423282    -0.7446556
C           5.1814572     1.4060462    -0.1356220
H          -2.0673634    -0.6447668    -1.6371158
H          -2.5305449     0.6427123     0.4530631
H          -0.5905373     1.2095084     1.9540583
H           1.6981793     0.4642713     1.2848206
H           2.3511643    -2.0984974    -0.8541558
H           2.3899604    -0.8597058    -2.0856229
H           6.7115363     1.1633419     1.3678763
H           5.8662504    -1.0578037     2.1050412
H           3.8777721    -2.0529759     1.0175051
H           3.5569632     1.3757606    -1.5479397
H           5.5469484     2.3742593    -0.4680498
24
008_C12H11N_0-5-6-10 (180,) energy =    -518.6542363
N          -0.0632527    -0.9301603    -1.2096820
C          -1.2837388    -0.5952065    -0.7824748
C          -1.5233701     0.2347972     0.3143447
C          -0.4215446     0.7402442     0.9996700
C           0.8597911     0.3996328     0.5658964
C           0.9983126    -0.4398192    -0.5450600
C           2.3497488    -0.8751374    -1.1035626
C           5.8423738     0.6430986     0.9566640
C           5.2684503    -0.5686207     1.3457217
C           4.1449562    -1.0575556     0.6774927
C           3.5743701    -0.3482593    -0.3882631
C           4.1617817     0.8661558    -0.7687763
C           5.2852943     1.3597401    -0.1041131
H          -2.1159602    -1.0131505    -1.3479041
H          -2.5392551     0.4726480     0.6153735
H          -0.5532111     1.3909881     1.8604710
H           1.7380286     0.7767203     1.0781531
H           2.3605999    -1.9723878    -1.1084565
H           2.3748773    -0.5787943    -2.1598295
H           6.7196421     1.0236505     1.4729818
H           5.6981609    -1.1367952     2.1667200
H           3.7054033    -2.0046773     0.9829972
H           3.7353726     1.4274994    -1.5974222
H           5.7282338     2.3013622    -0.4182192
