20
409_C7H9N3O_0-1-11-10 (-165,) energy =    -511.6448051
C           1.6338912    -1.6011907     0.4089555
N           2.4501251    -0.8713219    -0.4864889
C           2.0720345    -0.6886811    -1.8940738
H           1.2130291    -1.3126802    -2.1262840
H           2.9015956    -0.9598079    -2.5522640
H           1.8182852     0.3564744    -2.0905003
C           5.8709734     1.0808534     0.6126340
H           6.7780327     1.6029331     0.8960191
C           5.2235281     1.3215900    -0.5939862
H           5.6123429     2.0438392    -1.3106327
N           4.1004658     0.6916776    -0.9498511
C           3.6138918    -0.2021485    -0.0710302
N           4.1789620    -0.5497530     1.0944239
C           5.2913514     0.1032468     1.4231306
H           5.7455233    -0.1812776     2.3716003
C           0.6506578    -2.5897168    -0.2112442
H           0.3002435    -3.2289086     0.6002157
H           1.1042371    -3.2073500    -0.9930105
H          -0.2196016    -2.0794610    -0.6403006
O           1.6884590    -1.4629834     1.6129551
20
409_C7H9N3O_0-1-11-10 (-150,) energy =    -511.6457021
C           1.6282301    -1.5859396     0.4152594
N           2.4913474    -0.9685520    -0.5148232
C           2.1022202    -0.8269106    -1.9235770
H           1.5848079    -1.7264478    -2.2556729
H           2.9969808    -0.6917769    -2.5294260
H           1.4542315     0.0429640    -2.0833545
C           5.8284766     1.0977296     0.6321910
H           6.7121479     1.6493638     0.9331231
C           5.1101048     1.4197099    -0.5139240
H           5.4160476     2.2390674    -1.1629133
N           4.0102388     0.7573572    -0.8856325
C           3.6323264    -0.2590542    -0.0939303
N           4.2750195    -0.6915890     1.0001972
C           5.3544715     0.0023075     1.3561621
H           5.8718125    -0.3475411     2.2486290
C           0.5341369    -2.4730513    -0.1666860
H           0.0230320    -2.9383787     0.6767144
H           0.9395369    -3.2542029    -0.8193252
H          -0.1962657    -1.8967029    -0.7456380
O           1.7240948    -1.4222475     1.6146643
20
409_C7H9N3O_0-1-11-10 (-135,) energy =    -511.6457875
C           1.6865270    -1.4957918     0.5476229
N           2.6253008    -1.0081915    -0.3809629
C           2.2800932    -0.8832417    -1.8019269
H           1.8145344    -1.8063971    -2.1504134
H           3.1930278    -0.7174116    -2.3728533
H           1.6048744    -0.0410451    -1.9944769
C           5.8709982     1.1228726     0.8987172
H           6.7299419     1.6906186     1.2390500
C           5.1081051     1.5214337    -0.1936220
H           5.3509272     2.4215650    -0.7563669
N           4.0354515     0.8393932    -0.6094745
C           3.7435906    -0.2765979     0.0732081
N           4.4300067    -0.7813620     1.1068402
C           5.4758470    -0.0645689     1.5169664
H           6.0298669    -0.4693781     2.3627497
C           0.5396021    -2.3149356    -0.0285680
H          -0.0478291    -2.6819609     0.8136167
H           0.9015595    -3.1660458    -0.6161343
H          -0.1079471    -1.7126777    -0.6758052
O           1.7709938    -1.2802179     1.7408155
20
409_C7H9N3O_0-1-11-10 (-120,) energy =    -511.6446943
C           1.6898710    -1.4534918     0.5388068
N           2.6687377    -1.0891740    -0.3978652
C           2.3503666    -0.9974165    -1.8272060
H           1.8687318    -1.9197637    -2.1573082
H           3.2792956    -0.8784954    -2.3860864
H           1.7024853    -0.1442589    -2.0610512
C           5.8354174     1.1414186     0.9171026
H           6.6717488     1.7342784     1.2710707
C           4.9832443     1.5923934    -0.0856732
H           5.1285821     2.5623870    -0.5585891
N           3.9365960     0.8772333    -0.5137630
C           3.7702883    -0.3218216     0.0568810
N           4.5422087    -0.8742906     0.9995360
C           5.5590539    -0.1261920     1.4305593
H           6.1837917    -0.5678678     2.2054120
C           0.4961110    -2.2241357    -0.0055843
H          -0.1235319    -2.5072040     0.8458904
H           0.8069731    -3.1262345    -0.5441866
H          -0.1021799    -1.6143374    -0.6922135
O           1.7874840    -1.1792910     1.7206599
20
409_C7H9N3O_0-1-11-10 (-105,) energy =    -511.6428911
C           1.6725655    -1.4028127     0.5315176
N           2.6846879    -1.1494339    -0.3961662
C           2.4277998    -1.1264840    -1.8392042
H           1.8602555    -2.0128522    -2.1277285
H           3.3839320    -1.1550032    -2.3665700
H           1.8866461    -0.2266745    -2.1561973
C           5.7909529     1.1608846     0.9385215
H           6.6085562     1.7748919     1.3004299
C           4.8309278     1.6564581     0.0612353
H           4.8683923     2.6832774    -0.2989503
N           3.8077791     0.9127330    -0.3749251
C           3.7742867    -0.3512707     0.0586217
N           4.6510818    -0.9445121     0.8731096
C           5.6472929    -0.1733428     1.3170037
H           6.3592106    -0.6482569     1.9901650
C           0.4458852    -2.1376158     0.0129772
H          -0.2031697    -2.3325901     0.8673241
H           0.7136048    -3.0876552    -0.4628012
H          -0.1044340    -1.5385581    -0.7216537
O           1.7771551    -1.0703384     1.7001749
20
409_C7H9N3O_0-1-11-10 (-90,) energy =    -511.6416313
C           1.5665805    -1.1255290     0.4334020
N           2.5260363    -0.7758810    -0.5040643
C           2.7051364    -1.4362607    -1.7950694
H           1.7399385    -1.7603179    -2.1854045
H           3.3756849    -2.3024043    -1.7230727
H           3.1305626    -0.7222459    -2.5070430
C           5.8157845     1.2189812     0.9100267
H           6.6848322     1.7461985     1.2887862
C           4.6666193     1.8921371     0.5014215
H           4.6043636     2.9783737     0.5402515
N           3.5890186     1.2546028     0.0305964
C           3.6679402    -0.0768307     0.0009956
N           4.7224232    -0.8278965     0.3310971
C           5.7931716    -0.1678827     0.7860891
H           6.6548967    -0.7751224     1.0581674
C           0.4129642    -1.9935599    -0.0453336
H          -0.2713706    -2.1175541     0.7946404
H           0.7572427    -2.9813449    -0.3724754
H          -0.1243580    -1.5309099    -0.8809372
O           1.6391414    -0.7267156     1.5865914
20
409_C7H9N3O_0-1-11-10 (-75,) energy =    -511.6431187
C           1.5068012    -1.0627372     0.4351227
N           2.5173890    -0.7728726    -0.4833936
C           2.7405434    -1.5936905    -1.6774859
H           1.7926274    -1.7591868    -2.1923869
H           3.2035696    -2.5599885    -1.4440465
H           3.4020314    -1.0523016    -2.3571401
C           5.7992514     1.2476818     0.9009055
H           6.6684514     1.7837845     1.2663071
C           4.5644444     1.8730731     0.7293937
H           4.4334732     2.9314069     0.9493931
N           3.4890803     1.2298461     0.2682745
C           3.6516508    -0.0734596     0.0201691
N           4.7863163    -0.7728088     0.1181874
C           5.8567743    -0.0986359     0.5546803
H           6.7839834    -0.6643858     0.6300037
C           0.3510212    -1.9117267    -0.0713254
H          -0.3869425    -1.9700306     0.7294436
H           0.6767293    -2.9263270    -0.3282256
H          -0.1140370    -1.4739792    -0.9616341
O           1.5418157    -0.6395838     1.5784403
20
409_C7H9N3O_0-1-11-10 (-60,) energy =    -511.6449256
C           1.4905086    -1.0001887     0.4180942
N           2.5667396    -0.7961202    -0.4592901
C           2.7951970    -1.6946520    -1.5965151
H           1.8706111    -1.8089280    -2.1651224
H           3.1569677    -2.6823935    -1.2871160
H           3.5466054    -1.2500816    -2.2498187
C           5.8265776     1.2943316     0.8566755
H           6.6910499     1.8498806     1.2033881
C           4.5426772     1.8413871     0.8681956
H           4.3671216     2.8573649     1.2187117
N           3.4712201     1.1781564     0.4319255
C           3.6891317    -0.0763768     0.0190076
N           4.8719751    -0.6970254    -0.0632738
C           5.9343131     0.0032901     0.3507268
H           6.8981698    -0.4977620     0.2758967
C           0.3246768    -1.8117382    -0.1273682
H          -0.4610596    -1.7991381     0.6286627
H           0.6107745    -2.8515354    -0.3231621
H          -0.0630930    -1.3900815    -1.0612998
O           1.4808336    -0.5504684     1.5489865
20
409_C7H9N3O_0-1-11-10 (-45,) energy =    -511.6458623
C           1.4574113    -0.9671986     0.4153053
N           2.6009314    -0.8573233    -0.3987765
C           2.8295730    -1.7931566    -1.5058787
H           1.9128243    -1.9083379    -2.0857004
H           3.1638737    -2.7772359    -1.1564427
H           3.6041802    -1.3883404    -2.1561467
C           5.8366070     1.3212591     0.8256043
H           6.6960663     1.8971136     1.1506215
C           4.5298766     1.7855539     0.9852316
H           4.3299575     2.7573647     1.4344725
N           3.4620888     1.0975371     0.5830515
C           3.7088221    -0.1025070     0.0408166
N           4.9153081    -0.6412220    -0.1865053
C           5.9687231     0.0855415     0.2016355
H           6.9479417    -0.3495844     0.0074631
C           0.2880787    -1.7436750    -0.1752104
H          -0.5351617    -1.6732827     0.5363623
H           0.5339907    -2.8005792    -0.3281076
H          -0.0304248    -1.3312624    -1.1391628
O           1.3940441    -0.4823012     1.5278972
20
409_C7H9N3O_0-1-11-10 (-30,) energy =    -511.6455636
C           1.3723757    -1.0509031     0.2229637
N           2.5764260    -1.0544424    -0.5144893
C           2.7978731    -2.0257909    -1.5934235
H           1.8628918    -2.2127497    -2.1194896
H           3.1945781    -2.9738150    -1.2118678
H           3.5229720    -1.6210397    -2.2983819
C           5.8465264     1.1373399     0.5928933
H           6.7173716     1.7122623     0.8875770
C           4.5475716     1.5481215     0.8967734
H           4.3641578     2.4774142     1.4346637
N           3.4648785     0.8589855     0.5413999
C           3.6873894    -0.2864963    -0.1180875
N           4.8855037    -0.7710469    -0.4842508
C           5.9506601    -0.0456531    -0.1304394
H           6.9189619    -0.4388379    -0.4370198
C           0.1852552    -1.7618092    -0.4168323
H          -0.6735655    -1.5848316     0.2313915
H           0.3474342    -2.8425542    -0.4966389
H          -0.0343512    -1.3790450    -1.4197224
O           1.2675888    -0.5304865     1.3148126
20
409_C7H9N3O_0-1-11-10 (-15,) energy =    -511.6446153
C           1.3731219    -1.0257051     0.2100457
N           2.6290882    -1.1032099    -0.4374001
C           2.8825779    -2.0846280    -1.5009673
H           1.9638758    -2.6149565    -1.7366392
H           3.6385556    -2.8056349    -1.1801089
H           3.2547138    -1.5904930    -2.4026981
C           5.8713266     1.1830350     0.5575761
H           6.7371977     1.7809579     0.8190719
C           4.5882508     1.4944526     1.0099077
H           4.4107934     2.3662592     1.6386528
N           3.5122071     0.7731980     0.7032146
C           3.7227973    -0.3000068    -0.0723247
N           4.9049539    -0.6832731    -0.5871883
C           5.9625290     0.0667159    -0.2664320
H           6.9155942    -0.2480371    -0.6895914
C           0.1825413    -1.6272514    -0.5317997
H          -0.7130813    -1.2577421    -0.0306213
H           0.1777858    -2.7217399    -0.4688315
H           0.1522144    -1.3458123    -1.5892019
O           1.2221139    -0.5182502     1.3012883
20
409_C7H9N3O_0-1-11-10 (0,) energy =    -511.6437345
C           1.3326856    -0.9769335     0.1596506
N           2.6262834    -1.1471948    -0.3923274
C           2.8666102    -2.1552972    -1.4353915
H           2.0271412    -2.8445264    -1.4768168
H           3.7715551    -2.7149255    -1.1986237
H           3.0079321    -1.6925946    -2.4183487
C           5.8952041     1.1481930     0.5098644
H           6.7682277     1.7476737     0.7423623
C           4.6534696     1.3792408     1.1015087
H           4.5159659     2.1849423     1.8218954
N           3.5703264     0.6514974     0.8354772
C           3.7266584    -0.3389215    -0.0536410
N           4.8682062    -0.6425741    -0.7006050
C           5.9352050     0.1034065    -0.4074638
H           6.8536896    -0.1516189    -0.9347227
C           0.1784452    -1.6094926    -0.6157490
H          -0.7367756    -1.1629498    -0.2247956
H           0.1245596    -2.6915044    -0.4465391
H           0.2391890    -1.4370683    -1.6948361
O           1.1167914    -0.3711069     1.1872756
20
409_C7H9N3O_0-1-11-10 (15,) energy =    -511.6446150
C           1.2433454    -0.6580418    -0.1045059
N           2.5706652    -0.9736003    -0.4804720
C           2.8617137    -2.0796904    -1.4026896
H           1.9455065    -2.6181203    -1.6295923
H           3.5858900    -2.7704812    -0.9620616
H           3.2898982    -1.6964151    -2.3322476
C           5.8605532     1.1467042     0.7064309
H           6.7372425     1.7069528     1.0116498
C           4.6218581     1.3058599     1.3295753
H           4.4966081     1.9982136     2.1613345
N           3.5326726     0.6304953     0.9695448
C           3.6800491    -0.2252243    -0.0520919
N           4.8250232    -0.4806795    -0.7102053
C           5.9003419     0.2079907    -0.3185711
H           6.8243241    -0.0065708    -0.8539990
C           0.2020376    -1.7600995    -0.2802159
H          -0.6773125    -1.4477734     0.2846303
H           0.5451055    -2.7330703     0.0857195
H          -0.0934320    -1.8741763    -1.3297462
O           0.9201995     0.4262744     0.3324871
20
409_C7H9N3O_0-1-11-10 (30,) energy =    -511.6455634
C           1.2325930    -0.6502032    -0.1291961
N           2.5558121    -1.0531822    -0.4125712
C           2.8248717    -2.1803417    -1.3146313
H           2.0621403    -2.9467654    -1.1854087
H           3.7974124    -2.6083979    -1.0749132
H           2.8471185    -1.8648562    -2.3642702
C           5.8159544     1.1672695     0.6666079
H           6.6821035     1.7569706     0.9455156
C           4.6296431     1.1958869     1.4015788
H           4.5392758     1.8089113     2.2974466
N           3.5561186     0.4772038     1.0783111
C           3.6634108    -0.2758833    -0.0252627
N           4.7556028    -0.4008172    -0.7972087
C           5.8223411     0.3176168    -0.4341182
H           6.7076882     0.2062281    -1.0585744
C           0.1375341    -1.6703053    -0.4193363
H          -0.7972710    -1.2384220    -0.0605847
H           0.3145202    -2.6233233     0.0915090
H           0.0402599    -1.8755104    -1.4912990
O           0.9557103     0.4482053     0.3075773
20
409_C7H9N3O_0-1-11-10 (45,) energy =    -511.6458620
C           1.2595927    -0.6030574    -0.1484540
N           2.5671692    -1.0925752    -0.3325432
C           2.8221291    -2.2409240    -1.2102544
H           2.1096662    -3.0373216    -0.9908544
H           3.8287226    -2.6122012    -1.0219318
H           2.7543498    -1.9759178    -2.2720842
C           5.8131282     1.1902162     0.6518936
H           6.6747431     1.7957562     0.9104962
C           4.6925283     1.1025438     1.4795926
H           4.6525103     1.6354097     2.4286184
N           3.6292871     0.3560628     1.1836127
C           3.6752026    -0.2896147     0.0105687
N           4.7016183    -0.3026756    -0.8519450
C           5.7659025     0.4329122    -0.5134583
H           6.6020428     0.4134954    -1.2108687
C           0.1305910    -1.5688016    -0.4827911
H          -0.8037325    -1.0744666    -0.2149718
H           0.2169450    -2.5072578     0.0762107
H           0.1065218    -1.8159394    -1.5501592
O           1.0289258     0.5226758     0.2468813
20
409_C7H9N3O_0-1-11-10 (60,) energy =    -511.6449257
C           1.2798408    -0.5910768    -0.1892696
N           2.5671837    -1.1451064    -0.2622205
C           2.8404064    -2.3177959    -1.1005615
H           2.1133573    -3.1020548    -0.8822253
H           3.8347580    -2.6962568    -0.8616577
H           2.8147200    -2.0853991    -2.1718144
C           5.7889266     1.2129407     0.6246514
H           6.6440026     1.8364394     0.8617443
C           4.7549704     0.9992190     1.5374702
H           4.7788098     1.4464618     2.5301032
N           3.7037534     0.2240265     1.2690353
C           3.6697979    -0.3092512     0.0416716
N           4.6096071    -0.1982929    -0.9046017
C           5.6690907     0.5589670    -0.5969509
H           6.4384223     0.6424592    -1.3630260
C           0.1303230    -1.5160109    -0.5610863
H          -0.7967179    -0.9753626    -0.3677358
H           0.1432147    -2.4380039     0.0307515
H           0.1617195    -1.7977473    -1.6198275
O           1.0869561     0.5594533     0.1576741
20
409_C7H9N3O_0-1-11-10 (75,) energy =    -511.6431187
C           1.2474111    -0.5523941    -0.2418896
N           2.5063931    -1.1548828    -0.2106276
C           2.8035918    -2.3732402    -0.9700165
H           2.0211692    -3.1142260    -0.7973776
H           3.7465298    -2.7901829    -0.6099717
H           2.8990768    -2.1861114    -2.0463471
C           5.7250133     1.2459677     0.5928143
H           6.5779922     1.8808312     0.8068036
C           4.8066201     0.8866452     1.5790694
H           4.9223390     1.2268415     2.6069272
N           3.7592028     0.0955555     1.3344087
C           3.6123560    -0.3008388     0.0664040
N           4.4375952    -0.0466014    -0.9537027
C           5.4957877     0.7243618    -0.6765017
H           6.1729614     0.9283679    -1.5043365
C           0.0807164    -1.4367137    -0.6540738
H          -0.8307394    -0.8487520    -0.5410628
H           0.0123756    -2.3348256    -0.0301574
H           0.1673049    -1.7599213    -1.6978844
O           1.0911452     0.6176905     0.0646014
20
409_C7H9N3O_0-1-11-10 (90,) energy =    -511.6416317
C           1.2855571    -0.5493289    -0.3200622
N           2.5192161    -1.1728324    -0.2154805
C           2.8465942    -2.4709522    -0.8006741
H           1.9700600    -3.1193105    -0.7843141
H           3.6267005    -2.9487600    -0.1999257
H           3.2070909    -2.3759121    -1.8331643
C           5.7300004     1.2542876     0.5597910
H           6.5768688     1.9004726     0.7645251
C           4.9675709     0.6939826     1.5822413
H           5.2026847     0.8796732     2.6289191
N           3.9222667    -0.1059656     1.3439346
C           3.6317108    -0.3156493     0.0588662
N           4.3062006     0.1353837    -1.0025767
C           5.3556611     0.9219347    -0.7397136
H           5.9080382     1.2937870    -1.6010780
C           0.1080855    -1.4096061    -0.7524424
H          -0.7828648    -0.7815771    -0.7203497
H          -0.0340164    -2.2686238    -0.0869507
H           0.2375648    -1.7914599    -1.7716115
O           1.1544793     0.6353775    -0.0490392
20
409_C7H9N3O_0-1-11-10 (105,) energy =    -511.6428911
C           2.0509366    -2.0617919     0.1941990
N           2.2609272    -0.7818999    -0.3224581
C           1.6390326    -0.3373514    -1.5732506
H           0.5735241    -0.5729670    -1.5603895
H           2.1028824    -0.7900069    -2.4580864
H           1.7409774     0.7474788    -1.6499274
C           5.8219454     0.9802015     0.6685745
H           6.7683612     1.4382181     0.9349893
C           5.5799477     0.4796810    -0.6072721
H           6.3348863     0.5338369    -1.3899773
N           4.4231260    -0.1047859    -0.9394895
C           3.4944241    -0.1558161     0.0205526
N           3.5999691     0.3151901     1.2659874
C           4.7740036     0.8686208     1.5814908
H           4.8700403     1.2445858     2.5988120
C           0.8000821    -2.7869299    -0.2781427
H           0.7367973    -3.7236724     0.2765687
H           0.8427036    -3.0112729    -1.3501809
H          -0.1043535    -2.1959664    -0.0954828
O           2.8199064    -2.5621297     0.9976893
20
409_C7H9N3O_0-1-11-10 (120,) energy =    -511.6446944
C           2.0139174    -2.0412900     0.2254903
N           2.3057618    -0.8015291    -0.3628383
C           1.7281297    -0.4242048    -1.6577704
H           0.6448152    -0.5560723    -1.6304323
H           2.1446956    -1.0035767    -2.4903129
H           1.9392126     0.6298228    -1.8416989
C           5.8130633     1.0281877     0.6767076
H           6.7453312     1.5078057     0.9542999
C           5.5219986     0.6887947    -0.6405906
H           6.2224842     0.8978877    -1.4476033
N           4.3840755     0.0777726    -0.9897458
C           3.5173477    -0.1625257     0.0012347
N           3.6707703     0.1493480     1.2931041
C           4.8277676     0.7282565     1.6180635
H           4.9613097     0.9743694     2.6703840
C           0.7330604    -2.7177926    -0.2403734
H           0.6016260    -3.6158100     0.3640929
H           0.7869255    -3.0060842    -1.2964317
H          -0.1385869    -2.0656570    -0.1160574
O           2.7344506    -2.5478130     1.0655742
20
409_C7H9N3O_0-1-11-10 (135,) energy =    -511.6457874
C           1.9810324    -2.0433297     0.2510495
N           2.3674003    -0.8598345    -0.4057847
C           1.8113886    -0.5139086    -1.7191562
H           0.7257799    -0.6216844    -1.6997245
H           2.2233692    -1.1353772    -2.5231170
H           2.0535864     0.5247122    -1.9415792
C           5.8020010     1.0710604     0.6842809
H           6.7146772     1.5809392     0.9723846
C           5.4635639     0.8587572    -0.6478322
H           6.1039859     1.2052278    -1.4575878
N           4.3503648     0.2139588    -1.0134520
C           3.5536960    -0.2006478    -0.0183603
N           3.7522460    -0.0126847     1.2929176
C           4.8839179     0.6063616     1.6274096
H           5.0509010     0.7522178     2.6937008
C           0.6610932    -2.6555770    -0.1973369
H           0.4651328    -3.5087815     0.4528140
H           0.7040781    -3.0044060    -1.2353305
H          -0.1666193    -1.9419438    -0.1181805
O           2.6528169    -2.5591930     1.1227661
20
409_C7H9N3O_0-1-11-10 (150,) energy =    -511.6457020
C           1.9314742    -2.0452685     0.2614625
N           2.4197848    -0.9301458    -0.4521769
C           1.8869331    -0.5933599    -1.7782761
H           0.8094126    -0.7542282    -1.7947699
H           2.3539639    -1.1905488    -2.5703210
H           2.0891388     0.4558299    -1.9886499
C           5.7811988     1.0990879     0.6900564
H           6.6741355     1.6372137     0.9880830
C           5.3870882     0.9989310    -0.6395977
H           5.9604075     1.4691862    -1.4372755
N           4.2976387     0.3245172    -1.0201732
C           3.5822687    -0.2507420    -0.0404067
N           3.8354946    -0.1750268     1.2738938
C           4.9392968     0.4852426     1.6191055
H           5.1460114     0.5406803     2.6871547
C           0.5723003    -2.5807633    -0.1726371
H           0.3053186    -3.3711819     0.5295321
H           0.6019220    -3.0036880    -1.1831331
H          -0.2015570    -1.8052998    -0.1552580
O           2.5487982    -2.5733647     1.1640117
20
409_C7H9N3O_0-1-11-10 (165,) energy =    -511.6448051
C           1.8818577    -2.0179846     0.2345759
N           2.4666229    -0.9785079    -0.5259871
C           1.9753006    -0.6391628    -1.8679994
H           1.0526447    -1.1779358    -2.0670807
H           2.7160570    -0.9062326    -2.6264409
H           1.7885892     0.4349351    -1.9477967
C           5.7468653     1.1549905     0.6617710
H           6.6173667     1.7241641     0.9682144
C           5.2850476     1.1554042    -0.6497206
H           5.7797453     1.7403574    -1.4240128
N           4.2195667     0.4510124    -1.0408996
C           3.6020898    -0.2738389    -0.0913253
N           3.9281048    -0.3102807     1.2088722
C           4.9998981     0.3951055     1.5634057
H           5.2617073     0.3606006     2.6203185
C           0.4587525    -2.4224924    -0.1391899
H           0.0834603    -3.0322485     0.6837322
H           0.4375388    -3.0325882    -1.0497529
H          -0.2027740    -1.5631194    -0.2882480
O           2.4624457    -2.5799148     1.1394264
20
409_C7H9N3O_0-1-11-10 (180,) energy =    -511.6438273
C           1.8984985    -1.9869508     0.3461664
N           2.5763516    -1.0478621    -0.4695217
C           2.0899628    -0.7434004    -1.8229446
H           1.3551666    -1.4864906    -2.1220214
H           2.9240824    -0.7693193    -2.5244966
H           1.6415162     0.2548536    -1.8743679
C           5.7953978     1.1906693     0.7073567
H           6.6490233     1.7876990     1.0081224
C           5.2475993     1.2685725    -0.5684790
H           5.6552252     1.9446104    -1.3190807
N           4.1984964     0.5370499    -0.9509154
C           3.6885741    -0.3061804    -0.0336089
N           4.1147159    -0.4399203     1.2304293
C           5.1602500     0.3065871     1.5799576
H           5.4988364     0.1933233     2.6093088
C           0.4748125    -2.3452830    -0.0748858
H           0.0106622    -2.8292079     0.7855596
H           0.4694637    -3.0601677    -0.9062891
H          -0.1185144    -1.4747025    -0.3712453
O           2.3922996    -2.4985651     1.3280309
