20
409_C7H9N3O_19-0-1-11 (-165,) energy =    -511.6548753
C           1.2401669    -1.8338594    -0.0213533
N           2.6166506    -1.7511966    -0.3451160
C           3.2531677    -2.9796031    -0.8488421
H           3.6273761    -2.8209010    -1.8624865
H           2.4994766    -3.7624688    -0.8325242
H           4.0967192    -3.2583242    -0.2123370
C           5.1242919     1.4328131     0.1806631
H           5.7991971     2.2695700     0.3197587
C           3.8414917     1.4152028     0.7233680
H           3.4688311     2.2502698     1.3151782
N           3.0029947     0.3895996     0.5727120
C           3.4468197    -0.6443976    -0.1615078
N           4.6661658    -0.7371733    -0.7259998
C           5.4853506     0.2989018    -0.5432262
H           6.4703073     0.2124653    -1.0002156
C           0.4278016    -0.5741676     0.2009230
H          -0.6191565    -0.8610292     0.0823865
H           0.6881075     0.2243599    -0.4969900
H           0.5877251    -0.1813659     1.2073569
O           0.7008348    -2.9275201     0.0258614
20
409_C7H9N3O_19-0-1-11 (-150,) energy =    -511.6537313
C           1.2772695    -1.8336912     0.0531304
N           2.6124892    -1.7294762    -0.4155436
C           3.2381794    -2.9696455    -0.9017345
H           3.7125158    -2.7855859    -1.8665174
H           2.4561586    -3.7200462    -0.9879378
H           4.0027840    -3.3229413    -0.2028573
C           5.1384763     1.4183016     0.2096864
H           5.8167336     2.2475353     0.3748945
C           3.8536241     1.3916817     0.7476410
H           3.4833147     2.2119168     1.3612606
N           3.0111551     0.3743954     0.5664212
C           3.4545826    -0.6405049    -0.1955392
N           4.6749863    -0.7241584    -0.7582536
C           5.4978140     0.3029996    -0.5435845
H           6.4845971     0.2246893    -0.9981209
C           0.4186642    -0.5891563     0.1545811
H          -0.6142564    -0.9117106     0.0006074
H           0.6928359     0.1794929    -0.5699526
H           0.5083277    -0.1477417     1.1498506
O           0.8153340    -2.9318775     0.3089974
20
409_C7H9N3O_19-0-1-11 (-135,) energy =    -511.6514032
C           1.3120586    -1.7730804     0.1778590
N           2.5854861    -1.6574670    -0.4497835
C           3.1920755    -2.9209048    -0.9009652
H           3.7537826    -2.7377487    -1.8163017
H           2.3894650    -3.6344579    -1.0770584
H           3.8728945    -3.3322679    -0.1480457
C           5.1493365     1.4546035     0.1896807
H           5.8350886     2.2768586     0.3586528
C           3.8592253     1.4436237     0.7163732
H           3.4919447     2.2701429     1.3233462
N           3.0076760     0.4351369     0.5303394
C           3.4495922    -0.5880910    -0.2232183
N           4.6726149    -0.6867335    -0.7758521
C           5.5034792     0.3334809    -0.5572753
H           6.4933071     0.2440114    -1.0030552
C           0.3854914    -0.5750000     0.1744423
H          -0.6303402    -0.9579358     0.0396757
H           0.6281998     0.1497441    -0.6037844
H           0.4385497    -0.0630922     1.1385470
O           0.9709372    -2.8408685     0.6500776
20
409_C7H9N3O_19-0-1-11 (-120,) energy =    -511.6478748
C           1.3418422    -1.7772718     0.2691122
N           2.5520126    -1.6620018    -0.4937277
C           3.1373333    -2.9424953    -0.9253736
H           3.7299036    -2.7717843    -1.8231703
H           2.3224377    -3.6343964    -1.1368000
H           3.7804812    -3.3793148    -0.1535961
C           5.1493953     1.4040716     0.2086640
H           5.8414638     2.2173958     0.3942270
C           3.8617624     1.3887474     0.7424996
H           3.5031714     2.2029279     1.3709700
N           3.0034313     0.3901178     0.5372030
C           3.4375014    -0.6177018    -0.2439683
N           4.6554193    -0.7110772    -0.8067337
C           5.4930768     0.2993636    -0.5671036
H           6.4802891     0.2154278    -1.0197578
C           0.3346230    -0.6524986     0.1630208
H          -0.6453870    -1.1043240    -0.0246414
H           0.5772328     0.0614068    -0.6242939
H           0.2851611    -0.1190064     1.1157851
O           1.1373782    -2.7727031     0.9316596
20
409_C7H9N3O_19-0-1-11 (-105,) energy =    -511.6442051
C           1.4303167    -1.8670261     0.2147939
N           2.5791782    -1.7335897    -0.6626835
C           3.1055890    -3.0106082    -1.1721876
H           3.6472309    -2.8236408    -2.0988580
H           2.2621055    -3.6754814    -1.3651706
H           3.7816315    -3.4925473    -0.4573325
C           5.2764891     1.2354915     0.0561262
H           5.9943327     2.0249592     0.2464577
C           4.0028075     1.2376767     0.6240779
H           3.6824272     2.0421699     1.2848808
N           3.1122718     0.2702241     0.4108883
C           3.5014918    -0.7284365    -0.4080225
N           4.7017092    -0.8371961    -1.0053846
C           5.5696458     0.1468301    -0.7615551
H           6.5414943     0.0528397    -1.2446414
C           0.3068147    -0.8924526    -0.0316783
H          -0.1752368    -1.1479624    -0.9843893
H           0.6902439     0.1261838    -0.1085193
H          -0.4259887    -0.9671090     0.7739561
O           1.3865888    -2.7632709     1.0252859
20
409_C7H9N3O_19-0-1-11 (-90,) energy =    -511.6411593
C           1.4962306    -1.6177020     0.3296141
N           2.6391972    -1.4727559    -0.5756323
C           3.1384612    -2.7447066    -1.1157468
H           3.7772156    -2.5367293    -1.9733941
H           2.2821724    -3.3433008    -1.4369451
H           3.7114752    -3.3114584    -0.3725173
C           5.3110228     1.4579868     0.3303108
H           6.0185362     2.2432901     0.5700844
C           4.0059824     1.4589875     0.8240995
H           3.6502225     2.2588312     1.4724062
N           3.1261720     0.4990976     0.5463448
C           3.5642614    -0.4956012    -0.2554070
N           4.7960883    -0.6040981    -0.7834056
C           5.6486510     0.3780117    -0.4816735
H           6.6463834     0.2883103    -0.9097862
C           0.2879313    -0.8082368    -0.0555491
H          -0.5044897    -0.9406960     0.6834666
H          -0.0655231    -1.1246272    -1.0445995
H           0.5706802     0.2458917    -0.1269373
O           1.5547205    -2.3693109     1.2712851
20
409_C7H9N3O_19-0-1-11 (-75,) energy =    -511.6390235
C           1.5282891    -1.5694442     0.3844482
N           2.6566350    -1.4340116    -0.5464807
C           3.0669966    -2.6862241    -1.1850557
H           3.7239763    -2.4591183    -2.0244473
H           2.1734809    -3.1991459    -1.5542631
H           3.5966206    -3.3490042    -0.4888461
C           5.3921312     1.4286541     0.3528382
H           6.1147679     2.2007898     0.5903519
C           4.0818802     1.4654468     0.8339138
H           3.7387862     2.2822244     1.4678730
N           3.1812606     0.5270964     0.5529971
C           3.6091953    -0.4901851    -0.2269938
N           4.8423362    -0.6344699    -0.7430092
C           5.7122574     0.3350379    -0.4473929
H           6.7105352     0.2213710    -0.8685691
C           0.2397207    -0.9909509    -0.1316920
H          -0.5782524    -1.1986832     0.5606351
H           0.0107364    -1.3925554    -1.1255417
H           0.3735773     0.0911377    -0.2428584
O           1.6661821    -2.1216599     1.4462025
20
409_C7H9N3O_19-0-1-11 (-60,) energy =    -511.6396062
C           1.4880845    -1.2871362     0.5824886
N           2.7580958    -1.3838828    -0.0826338
C           2.8955523    -2.3118684    -1.2079334
H           2.5495722    -1.8785663    -2.1567182
H           2.3280570    -3.2215100    -0.9992222
H           3.9489127    -2.5675266    -1.3112943
C           5.6049145     1.4783213     0.4805140
H           6.3641773     2.2361988     0.6358662
C           4.3317230     1.5745709     1.0446652
H           4.0532330     2.4291495     1.6602838
N           3.3840806     0.6585619     0.8607719
C           3.7245400    -0.4022253     0.1058259
N           4.9056794    -0.5885838    -0.5104164
C           5.8269393     0.3575119    -0.3139226
H           6.7808503     0.2035102    -0.8169757
C           0.2718451    -1.2906505    -0.3257676
H          -0.6219750    -1.1828029     0.2902116
H           0.1959906    -2.2177158    -0.9038216
H           0.3323429    -0.4630694    -1.0424059
O           1.4036920    -1.2592164     1.7870117
20
409_C7H9N3O_19-0-1-11 (-45,) energy =    -511.6421849
C           1.6135629    -1.2531723     0.3438327
N           2.8926191    -1.3156562    -0.2766394
C           3.1109991    -2.2128306    -1.4155361
H           2.3263774    -2.9688871    -1.4329838
H           4.0755912    -2.7076139    -1.2998009
H           3.1177332    -1.6738178    -2.3713537
C           5.8513068     1.3738598     0.5381427
H           6.6409385     2.0846591     0.7538534
C           4.5559971     1.5275284     1.0360303
H           4.2907814     2.3826720     1.6566499
N           3.5720156     0.6688177     0.7806207
C           3.8950745    -0.3885523     0.0181187
N           5.0950752    -0.6267034    -0.5398137
C           6.0558968     0.2617425    -0.2717325
H           7.0254892     0.0661145    -0.7279715
C           0.4159339    -1.5175334    -0.5597999
H          -0.4491345    -1.0344456    -0.1014888
H           0.2012576    -2.5914627    -0.6175665
H           0.5577214    -1.1419180    -1.5773173
O           1.4800238    -1.0683406     1.5328373
20
409_C7H9N3O_19-0-1-11 (-30,) energy =    -511.6442344
C           1.5742105    -1.2365296     0.2575441
N           2.8075879    -1.2130215    -0.4381842
C           3.0781141    -2.1339360    -1.5468230
H           2.1767773    -2.6989043    -1.7768149
H           3.8745501    -2.8314119    -1.2744635
H           3.3989304    -1.5883195    -2.4394498
C           5.8510787     1.3228770     0.5441755
H           6.6626216     1.9942374     0.8014308
C           4.5348417     1.5605612     0.9459320
H           4.2761888     2.4448382     1.5271738
N           3.5238273     0.7523744     0.6370599
C           3.8405499    -0.3405169    -0.0749218
N           5.0599083    -0.6596937    -0.5401029
C           6.0491137     0.1826557    -0.2264887
H           7.0351197    -0.0765777    -0.6097983
C           0.3516007    -1.6769977    -0.5387599
H          -0.5244818    -1.2933634    -0.0130688
H           0.2697759    -2.7702124    -0.5648814
H           0.3561215    -1.3073920    -1.5684444
O           1.4874112    -0.9609595     1.4352057
20
409_C7H9N3O_19-0-1-11 (-15,) energy =    -511.6455590
C           1.6492118    -1.1482441     0.2908364
N           2.8251698    -1.0584649    -0.4844936
C           3.0851057    -1.9950359    -1.5833669
H           2.1490038    -2.2480749    -2.0800575
H           3.5657568    -2.9140176    -1.2285382
H           3.7517500    -1.5268512    -2.3078245
C           5.9535400     1.3234002     0.6247151
H           6.7858120     1.9538481     0.9172734
C           4.6282370     1.6733277     0.8911154
H           4.3845922     2.6075614     1.3953806
N           3.5923341     0.9171115     0.5337374
C           3.8919890    -0.2367753    -0.0802207
N           5.1196238    -0.6667834    -0.4102390
C           6.1368741     0.1271075    -0.0596950
H           7.1312238    -0.2203907    -0.3364888
C           0.4451117    -1.7985808    -0.3778486
H          -0.4114120    -1.6292786     0.2757849
H           0.5821319    -2.8798070    -0.4942836
H           0.2394970    -1.3749033    -1.3666795
O           1.5923553    -0.7571311     1.4390535
20
409_C7H9N3O_19-0-1-11 (0,) energy =    -511.6458200
C           1.4675363    -0.9664705     0.3466551
N           2.6246662    -0.8577050    -0.4502498
C           2.8685389    -1.8006464    -1.5488229
H           1.9599167    -1.9186859    -2.1404157
H           3.1980392    -2.7826746    -1.1892916
H           3.6523894    -1.3997039    -2.1899335
C           5.8574291     1.3039488     0.8138666
H           6.7161789     1.8737932     1.1510867
C           4.5505606     1.7639980     0.9821689
H           4.3489528     2.7263940     1.4505884
N           3.4829756     1.0833157     0.5667011
C           3.7299998    -0.1047738    -0.0007281
N           4.9378154    -0.6377164    -0.2385407
C           5.9904060     0.0811704     0.1646632
H           6.9699356    -0.3493655    -0.0382065
C           0.3321060    -1.7993660    -0.2345721
H          -0.4961865    -1.7470365     0.4726525
H           0.6180204    -2.8483638    -0.3701871
H           0.0011174    -1.4146234    -1.2058353
O           1.3616954    -0.4331133     1.4330683
20
409_C7H9N3O_19-0-1-11 (15,) energy =    -511.6455590
C           1.2940759    -0.5832878    -0.1552306
N           2.6255881    -0.9830078    -0.3988933
C           2.9327219    -2.0867930    -1.3151137
H           2.1624218    -2.8534871    -1.2385687
H           3.8931384    -2.5255332    -1.0439287
H           3.0002782    -1.7451365    -2.3544420
C           5.8046140     1.2676591     0.8335881
H           6.6502344     1.8635511     1.1585083
C           4.6174588     1.2028927     1.5659430
H           4.5063334     1.7446466     2.5043436
N           3.5709811     0.4715474     1.1882285
C           3.7044098    -0.1894739     0.0291315
N           4.7995029    -0.2232836    -0.7457644
C           5.8418063     0.5016116    -0.3261042
H           6.7319295     0.4652813    -0.9525670
C           0.2196492    -1.6422293    -0.3652912
H          -0.7110540    -1.2336152     0.0301392
H           0.4543500    -2.5803419     0.1489424
H           0.0744263    -1.8657466    -1.4284536
O           1.0021885     0.5472711     0.1782813
20
409_C7H9N3O_19-0-1-11 (30,) energy =    -511.6442344
C           1.2110203    -0.6507986    -0.2141015
N           2.5517848    -0.9677103    -0.5423534
C           2.8766724    -2.0749560    -1.4472172
H           1.9684562    -2.6236931    -1.6890860
H           3.5981696    -2.7571668    -0.9874591
H           3.3172560    -1.6924301    -2.3716533
C           5.7354005     1.1610673     0.8688034
H           6.5844732     1.7234811     1.2406651
C           4.4831113     1.2122491     1.4848783
H           4.3201474     1.8164817     2.3765256
N           3.4298454     0.5265587     1.0476292
C           3.6264227    -0.2149225    -0.0538184
N           4.7869608    -0.3646419    -0.7139877
C           5.8285654     0.3242877    -0.2377049
H           6.7688755     0.1963453    -0.7722837
C           0.2186368    -1.8075538    -0.2125410
H          -0.6301888    -1.4964710     0.3988248
H           0.6422333    -2.7337516     0.1869637
H          -0.1568150    -2.0075727    -1.2232446
O           0.8496589     0.4833063     0.0174024
20
409_C7H9N3O_19-0-1-11 (45,) energy =    -511.6421845
C           1.2168280    -0.5571456    -0.2454727
N           2.5515798    -0.8021495    -0.6741025
C           2.8439738    -1.9505698    -1.5374452
H           1.9227501    -2.2867576    -2.0127067
H           3.2907488    -2.7838026    -0.9803681
H           3.5489401    -1.6445298    -2.3107236
C           5.7533862     1.1646894     0.9172220
H           6.6062429     1.6871935     1.3354340
C           4.4673090     1.3004692     1.4433677
H           4.2786531     1.9354743     2.3082228
N           3.4079617     0.6660084     0.9473270
C           3.6352405    -0.1158604    -0.1208233
N           4.8292285    -0.3469623    -0.6943889
C           5.8720861     0.2971697    -0.1634691
H           6.8375530     0.1048175    -0.6297413
C           0.3293234    -1.7842559    -0.0805771
H          -0.4605478    -1.5208843     0.6254945
H           0.8749673    -2.6610842     0.2798763
H          -0.1520560    -2.0463828    -1.0304870
O           0.7844065     0.5621824    -0.0851670
20
409_C7H9N3O_19-0-1-11 (60,) energy =    -511.6395988
C           1.0361394    -0.6931991    -0.1926831
N           2.3515709    -0.9433018    -0.7205417
C           2.5358974    -1.9840410    -1.7331392
H           1.5787192    -2.1814325    -2.2192782
H           2.9297398    -2.9173138    -1.3094673
H           3.2431283    -1.6281196    -2.4833194
C           5.6308874     0.8016009     0.9384886
H           6.5044112     1.2692630     1.3780930
C           4.3559887     0.9415300     1.4911626
H           4.1982212     1.5252964     2.3973846
N           3.2719842     0.3717180     0.9715772
C           3.4640747    -0.3456599    -0.1520898
N           4.6435596    -0.5743168    -0.7580662
C           5.7098241     0.0043619    -0.1991473
H           6.6640544    -0.1840077    -0.6897860
C           0.2899586    -1.9167341     0.3022067
H          -0.7648617    -1.6700561     0.4339244
H           0.7143724    -2.2002536     1.2742043
H           0.3922992    -2.7818239    -0.3585174
O           0.5684881     0.4190454    -0.1556385
20
409_C7H9N3O_19-0-1-11 (75,) energy =    -511.6390231
C           1.0736943    -0.8350196    -0.3938842
N           2.4272081    -1.3282867    -0.6818574
C           2.5770581    -1.9516376    -1.9982060
H           1.7432471    -2.6431811    -2.1539735
H           3.5144698    -2.5070492    -2.0249375
H           2.5810587    -1.2099695    -2.8071575
C           5.4891034     0.7504533     0.9880033
H           6.3032932     1.3017199     1.4440623
C           4.1912149     0.7841813     1.5018409
H           3.9535562     1.3694643     2.3893719
N           3.1792021     0.1145141     0.9561680
C           3.4729223    -0.6049675    -0.1495079
N           4.6786209    -0.7097101    -0.7352019
C           5.6696568    -0.0323625    -0.1492686
H           6.6479825    -0.1199700    -0.6205421
C           0.3250519    -1.6633075     0.6135292
H          -0.6998079    -1.3030309     0.7203664
H           0.8519101    -1.5900693     1.5718024
H           0.3304929    -2.7196214     0.3209957
O           0.6380888     0.1377726    -0.9552971
20
409_C7H9N3O_19-0-1-11 (90,) energy =    -511.6411592
C           1.0669040    -0.9695036    -0.4785557
N           2.4316325    -1.4245096    -0.7553722
C           2.6245999    -1.9422372    -2.1168686
H           1.7883210    -2.6040710    -2.3563485
H           3.5552007    -2.5076232    -2.1499760
H           2.6679974    -1.1382944    -2.8609945
C           5.4384821     0.6908073     0.9860107
H           6.2379648     1.2521289     1.4556046
C           4.1269119     0.7290641     1.4606698
H           3.8599563     1.3290917     2.3297621
N           3.1313221     0.0523839     0.8919020
C           3.4575788    -0.6912573    -0.1873890
N           4.6808088    -0.8000922    -0.7348372
C           5.6517130    -0.1067646    -0.1356169
H           6.6420550    -0.1956070    -0.5807159
C           0.4247839    -1.6139231     0.7198237
H          -0.5723200    -1.1996696     0.8804035
H           1.0542480    -1.4440579     1.5980475
H           0.3596223    -2.6976172     0.5631132
O           0.5298151    -0.1712973    -1.2062844
20
409_C7H9N3O_19-0-1-11 (105,) energy =    -511.6442051
C           0.9655619    -1.1335865    -0.6860455
N           2.3220076    -1.5625796    -0.9753132
C           2.5265177    -2.0422664    -2.3521050
H           1.6332375    -2.5880323    -2.6602500
H           3.3891582    -2.7075666    -2.3687771
H           2.6998650    -1.2191661    -3.0540831
C           5.4292542     0.3928513     0.7935666
H           6.2562981     0.9122540     1.2636774
C           4.1192837     0.5101169     1.2573167
H           3.8803731     1.1339449     2.1177084
N           3.0892479    -0.1111552     0.6850262
C           3.3779346    -0.8870170    -0.3799280
N           4.5980048    -1.0702492    -0.9156952
C           5.6031644    -0.4253995    -0.3199632
H           6.5888575    -0.5740009    -0.7593068
C           0.4043785    -1.5968028     0.6342962
H           0.2333417    -2.6799585     0.5810284
H          -0.5440301    -1.0916248     0.8264871
H           1.1120442    -1.4049394     1.4423435
O           0.3368514    -0.5117531    -1.5107336
20
409_C7H9N3O_19-0-1-11 (120,) energy =    -511.6478748
C           0.8997271    -1.0992030    -0.5705630
N           2.2630029    -1.4034775    -0.9001434
C           2.4902118    -1.7916044    -2.3023971
H           1.6191899    -2.3490524    -2.6459908
H           3.3815649    -2.4154938    -2.3531047
H           2.6300866    -0.9197822    -2.9508201
C           5.3219250     0.5172365     0.9957509
H           6.1362980     1.0270259     1.4975479
C           4.0058740     0.5956687     1.4485989
H           3.7483567     1.1781255     2.3322737
N           2.9905226    -0.0119680     0.8354277
C           3.3018734    -0.7391653    -0.2547973
N           4.5303997    -0.8821830    -0.7830173
C           5.5196318    -0.2475364    -0.1515706
H           6.5114013    -0.3613048    -0.5874365
C           0.4414495    -1.3727464     0.8457756
H          -0.5003266    -1.9288452     0.7858198
H           0.2436465    -0.4245633     1.3523751
H           1.1733557    -1.9331016     1.4277552
O           0.1493687    -0.6816168    -1.4274419
20
409_C7H9N3O_19-0-1-11 (135,) energy =    -511.6514032
C           0.8964416    -1.2025801    -0.5502015
N           2.2656547    -1.3599782    -0.9108534
C           2.5159334    -1.7634708    -2.3042376
H           1.6345748    -2.2903522    -2.6647016
H           3.3918927    -2.4106110    -2.3344004
H           2.6982039    -0.8963699    -2.9481696
C           5.3371253     0.5131707     1.0186734
H           6.1558854     1.0109076     1.5254193
C           4.0239190     0.5886286     1.4787602
H           3.7727264     1.1573844     2.3731161
N           3.0028336    -0.0048703     0.8607163
C           3.3036672    -0.7152469    -0.2416056
N           4.5301958    -0.8523650    -0.7782026
C           5.5257114    -0.2329652    -0.1423767
H           6.5144734    -0.3437382    -0.5857445
C           0.5054652    -1.3382522     0.9068463
H          -0.4574668    -1.8569543     0.9312475
H           0.3771378    -0.3474351     1.3496298
H           1.2457342    -1.8776105     1.4991336
O           0.0641049    -1.0226819    -1.4186196
20
409_C7H9N3O_19-0-1-11 (150,) energy =    -511.6537313
C           0.9004056    -1.3299832    -0.5975789
N           2.2651704    -1.3198307    -0.9856991
C           2.5605251    -1.7403678    -2.3647580
H           1.6540677    -2.1778537    -2.7758900
H           3.3769194    -2.4636579    -2.3591739
H           2.8604833    -0.8858504    -2.9793245
C           5.3168667     0.5165506     1.0130187
H           6.1317925     1.0049591     1.5348505
C           3.9979495     0.5981984     1.4543122
H           3.7375208     1.1637598     2.3480464
N           2.9815849     0.0157215     0.8177670
C           3.2919022    -0.6914013    -0.2826483
N           4.5258787    -0.8322366    -0.8027420
C           5.5166757    -0.2235056    -0.1500946
H           6.5106447    -0.3384033    -0.5805603
C           0.5391907    -1.3446410     0.8740435
H          -0.4166382    -1.8688146     0.9534636
H           0.4163544    -0.3239803     1.2436531
H           1.2950817    -1.8284941     1.4948943
O           0.0341051    -1.3907053    -1.4523907
20
409_C7H9N3O_19-0-1-11 (165,) energy =    -511.6548755
C           1.2057185    -1.7984720    -0.2214537
N           2.6064780    -1.7644503    -0.4287391
C           3.2233135    -2.9819835    -0.9811666
H           3.7401778    -2.7545359    -1.9168925
H           2.4229550    -3.6948283    -1.1613337
H           3.9531842    -3.3865372    -0.2767485
C           5.1354940     1.4060833     0.0771597
H           5.8145736     2.2414213     0.2039089
C           3.7519824     1.5594424     0.1282923
H           3.2994006     2.5357654     0.2968331
N           2.9020997     0.5455679    -0.0376118
C           3.4465467    -0.6660447    -0.2389678
N           4.7655110    -0.9286645    -0.3136170
C           5.5873714     0.1097476    -0.1585923
H           6.6516846    -0.1123425    -0.2247251
C           0.5287586    -0.7326700     0.6163519
H          -0.4360054    -1.1469767     0.9163690
H           0.3710504     0.1773687     0.0335034
H           1.1145046    -0.4505595     1.4937616
O           0.5546590    -2.7233180    -0.6797474
20
409_C7H9N3O_19-0-1-11 (180,) energy =    -511.6549957
C           1.2182132    -1.8265761    -0.1255432
N           2.6211933    -1.7664805    -0.3140442
C           3.2633401    -2.9908131    -0.8229029
H           3.5785506    -2.8575467    -1.8611684
H           2.5317489    -3.7910360    -0.7528181
H           4.1466633    -3.2201655    -0.2244896
C           5.1277853     1.4312286     0.1601261
H           5.8024286     2.2704669     0.2847259
C           3.8282477     1.4420507     0.6607722
H           3.4411769     2.3035201     1.2034866
N           2.9886275     0.4152589     0.5251449
C           3.4486384    -0.6523475    -0.1472692
N           4.6849955    -0.7723496    -0.6689167
C           5.5042363     0.2665596    -0.5045300
H           6.5019710     0.1567353    -0.9275585
C           0.4309323    -0.5947765     0.2706707
H          -0.6221395    -0.8748924     0.2082020
H           0.6372602     0.2559068    -0.3830037
H           0.6764214    -0.2740085     1.2849746
O           0.6385069    -2.8846353    -0.3138895
