24
038_C12H11F_2-0-18-16 (-165,) energy =    -563.7018639
C           2.6079551    -1.4393304    -1.5639160
H           3.0794462    -1.5683548    -2.5520239
C           1.2873007    -0.7330239    -1.7579611
H           1.3306299     0.2425366    -2.2406103
C           0.1059669    -1.2350030    -1.3918250
H          -0.8013360    -0.6637624    -1.5833053
C          -0.0622419    -2.5757676    -0.7311300
H          -0.5407257    -2.4508990     0.2549638
H          -0.7777687    -3.1865747    -1.3062109
C           1.2398505    -3.3146080    -0.5832577
H           1.1909945    -4.3121895    -0.1491233
C           2.4202583    -2.8188576    -0.9577686
H           3.3251456    -3.4075474    -0.8304757
C           5.5002735     0.7486762     0.8563483
H           6.2323423     1.2781108     1.4595360
C           5.9063984    -0.3175937     0.0518893
C           4.9512037    -0.9767927    -0.7084194
H           6.9402547    -0.6442036     0.0049235
C           3.5987863    -0.6258809    -0.7225694
C           3.2209162     0.4376394     0.1047767
H           2.1742008     0.7249153     0.1391024
F           5.3531538    -2.0150590    -1.4876593
C           4.1569520     1.1239907     0.8823433
H           3.8335049     1.9487655     1.5110038
24
038_C12H11F_2-0-18-16 (-150,) energy =    -563.7023970
C           2.6607001    -1.5220892    -1.5326559
H           3.1672451    -1.7356013    -2.4865246
C           1.3808641    -0.7786041    -1.8336186
H           1.4890911     0.1716122    -2.3544826
C           0.1648525    -1.2195381    -1.5032138
H          -0.7103889    -0.6270548    -1.7661071
C          -0.0857608    -2.5204845    -0.7893802
H          -0.6338164    -2.3344933     0.1494912
H          -0.7715267    -3.1451868    -1.3858705
C           1.1811463    -3.2817969    -0.5058274
H           1.0747139    -4.2429198    -0.0049477
C           2.3963865    -2.8462481    -0.8423500
H           3.2755779    -3.4465173    -0.6169304
C           5.5249867     0.7776688     0.8074972
H           6.2504608     1.3411744     1.3873714
C           5.9657546    -0.1703953    -0.1168617
C           5.0194269    -0.8778402    -0.8462600
H           7.0198727    -0.3703755    -0.2798911
C           3.6432785    -0.6846025    -0.7096233
C           3.2319278     0.2664851     0.2316402
H           2.1672405     0.4342823     0.3676661
F           5.4554644    -1.8075714    -1.7348276
C           4.1570480     0.9942614     0.9823549
H           3.8090501     1.7287169     1.7031816
24
038_C12H11F_2-0-18-16 (-135,) energy =    -563.7025061
C           2.6917378    -1.6156578    -1.4894599
H           3.2247617    -1.9233349    -2.4007288
C           1.4605573    -0.8385101    -1.8977192
H           1.6377651     0.0734539    -2.4654850
C           0.2115135    -1.2046949    -1.6008306
H          -0.6219922    -0.5899707    -1.9377869
C          -0.1320873    -2.4485832    -0.8265432
H          -0.7339918    -2.1864088     0.0595194
H          -0.7984074    -3.0894000    -1.4282221
C           1.0858254    -3.2284310    -0.4102195
H           0.9141389    -4.1406982     0.1592434
C           2.3346268    -2.8655750    -0.7096370
H           3.1733592    -3.4770489    -0.3819548
C           5.5133577     0.7985344     0.7853798
H           6.2243449     1.3944550     1.3506469
C           5.9658842    -0.0145417    -0.2533204
C           5.0391733    -0.7685789    -0.9637725
H           7.0156371    -0.0756883    -0.5216996
C           3.6700568    -0.7489224    -0.6930548
C           3.2468678     0.0739272     0.3588289
H           2.1863429     0.1079780     0.5928759
F           5.4966183    -1.5579274    -1.9686601
C           4.1512289     0.8421271     1.0919500
H           3.7939648     1.4733447     1.9006546
24
038_C12H11F_2-0-18-16 (-120,) energy =    -563.7025706
C           2.7206155    -1.7004866    -1.4381701
H           3.2797113    -2.0916640    -2.2999098
C           1.5430485    -0.9038326    -1.9584519
H           1.7868049    -0.0380838    -2.5717463
C           0.2669709    -1.2011814    -1.7034025
H          -0.5227378    -0.5763067    -2.1181214
C          -0.1656126    -2.3774680    -0.8703371
H          -0.8019358    -2.0349672    -0.0372748
H          -0.8242961    -3.0336603    -1.4637125
C           0.9974156    -3.1695225    -0.3366030
H           0.7605983    -4.0328635     0.2835552
C           2.2738599    -2.8738122    -0.5913430
H           3.0683316    -3.4906351    -0.1749512
C           5.5011540     0.8306277     0.7593203
H           6.1983762     1.4600464     1.3051402
C           5.9308234     0.1457858    -0.3763781
C           5.0217769    -0.6545023    -1.0600286
H           6.9502677     0.2185627    -0.7412947
C           3.6923797    -0.8068235    -0.6644805
C           3.2907342    -0.1065092     0.4809756
H           2.2603577    -0.2077587     0.8110017
F           5.4602870    -1.3128655    -2.1626522
C           4.1774989     0.7038010     1.1887532
H           3.8376382     1.2351975     2.0731425
24
038_C12H11F_2-0-18-16 (-105,) energy =    -563.7025404
C           2.7434240    -1.7808767    -1.3757428
H           3.3284214    -2.2475086    -2.1812941
C           1.6259096    -0.9774316    -2.0101359
H           1.9357789    -0.1626737    -2.6620294
C           0.3280541    -1.2108272    -1.8047575
H          -0.4142430    -0.5843012    -2.2971833
C          -0.1922923    -2.3154429    -0.9250974
H          -0.8595388    -1.8994645    -0.1519100
H          -0.8415131    -2.9864636    -1.5124048
C           0.9098014    -3.1110325    -0.2790628
H           0.6073672    -3.9248402     0.3784783
C           2.2084889    -2.8772805    -0.4813438
H           2.9549396    -3.4940517     0.0163516
C           5.4905655     0.8623778     0.7299828
H           6.1782646     1.5239779     1.2491725
C           5.8616409     0.2970015    -0.4893287
C           4.9659851    -0.5468410    -1.1365640
H           6.8256601     0.4957271    -0.9463635
C           3.7076977    -0.8622941    -0.6220335
C           3.3623133    -0.2766470     0.6031382
H           2.3879265    -0.5049670     1.0264752
F           5.3442214    -1.0854486    -2.3234053
C           4.2376078     0.5745931     1.2768772
H           3.9432188     1.0126877     2.2263212
24
038_C12H11F_2-0-18-16 (-90,) energy =    -563.7024188
C           1.8447245    -0.7436713    -0.8011415
H           1.2061811     0.1499403    -0.7317825
C           1.2859992    -1.7871683     0.1465295
H           1.2546184    -1.5049792     1.1971599
C           0.8568597    -2.9904959    -0.2381162
H           0.4730894    -3.6865882     0.5062921
C           0.8578552    -3.4585799    -1.6684935
H           1.4379004    -4.3921346    -1.7601141
H          -0.1644038    -3.7424907    -1.9697949
C           1.3984613    -2.4239851    -2.6183349
H           1.4153615    -2.6890869    -3.6745585
C           1.8341019    -1.2218339    -2.2344085
H           2.2109192    -0.5193798    -2.9762089
C           5.7799864     0.5207657     0.5710897
H           6.7562245     0.8421365     0.9229788
C           4.6354914     1.1968184     0.9947621
C           3.3983314     0.7675813     0.5310929
H           4.6834229     2.0427141     1.6729262
C           3.2394778    -0.3054449    -0.3478370
C           4.4057884    -0.9684424    -0.7492011
H           4.3140682    -1.8111643    -1.4288042
F           2.2906495     1.4266371     0.9574443
C           5.6638587    -0.5636854    -0.3008166
H           6.5518829    -1.0947934    -0.6316013
24
038_C12H11F_2-0-18-16 (-75,) energy =    -563.7021940
C           1.8724281    -0.7438234    -0.9054308
H           1.2690118     0.1784351    -0.9268438
C           1.2283621    -1.6860836     0.0934586
H           1.1461828    -1.3124923     1.1114960
C           0.7846297    -2.9057380    -0.2149051
H           0.3380226    -3.5272061     0.5599084
C           0.8505085    -3.4919458    -1.5995681
H           1.4325693    -4.4288598    -1.5863441
H          -0.1570536    -3.8017928    -1.9232957
C           1.4356655    -2.5397681    -2.6074420
H           1.4691172    -2.8790471    -3.6418418
C           1.8887807    -1.3224190    -2.2994586
H           2.2936598    -0.6816434    -3.0814894
C           5.7751410     0.4820808     0.5949065
H           6.7403803     0.7945703     0.9831936
C           4.6050560     1.0240330     1.1298811
C           3.3850496     0.6079031     0.6159175
H           4.6220906     1.7552576     1.9315869
C           3.2623785    -0.3218170    -0.4192829
C           4.4521991    -0.8561397    -0.9263804
H           4.3932356    -1.5944537    -1.7208718
F           2.2489133     1.1305400     1.1466947
C           5.6969434    -0.4593876    -0.4319671
H           6.6039681    -0.8882903    -0.8484375
24
038_C12H11F_2-0-18-16 (-60,) energy =    -563.7006898
C           1.8980474    -0.7013205    -0.9544399
H           1.3185958     0.2321341    -1.0714281
C           1.1737893    -1.5382760     0.0845006
H           1.0502331    -1.0854378     1.0631829
C           0.7041269    -2.7641518    -0.1535220
H           0.1948211    -3.3071063     0.6415090
C           0.8185877    -3.4619571    -1.4820838
H           1.3823654    -4.4034826    -1.3692792
H          -0.1799480    -3.7814106    -1.8235715
C           1.4614037    -2.6021947    -2.5362296
H           1.5141362    -3.0157127    -3.5424116
C           1.9407343    -1.3787807    -2.3017833
H           2.3777062    -0.8052520    -3.1179332
C           5.7882268     0.5028946     0.6203138
H           6.7492595     0.7995242     1.0307158
C           4.6100172     0.9141930     1.2454976
C           3.3950397     0.5218823     0.7023934
H           4.6152766     1.5293038     2.1395609
C           3.2794089    -0.2587801    -0.4516524
C           4.4800314    -0.6685791    -1.0440720
H           4.4378119    -1.3058560    -1.9219993
F           2.2577354     0.9463060     1.3144739
C           5.7205660    -0.2882519    -0.5260123
H           6.6321775    -0.6196298    -1.0151054
24
038_C12H11F_2-0-18-16 (-45,) energy =    -563.6970793
C           1.8906642    -0.6795885    -1.0010612
H           1.3440950     0.2572419    -1.2216335
C           1.0598682    -1.4182591     0.0335539
H           0.8442516    -0.8878155     0.9528624
C           0.6007504    -2.6586849    -0.1445251
H           0.0073036    -3.1261416     0.6401151
C           0.8327160    -3.4706271    -1.3900954
H           1.4178045    -4.3754540    -1.1523958
H          -0.1276298    -3.8577343    -1.7679168
C           1.5177366    -2.6819170    -2.4721820
H           1.6078152    -3.1577603    -3.4476651
C           1.9854542    -1.4441283    -2.2993855
H           2.4380237    -0.9212334    -3.1400988
C           5.7815707     0.4896942     0.6434700
H           6.7434237     0.7641236     1.0670400
C           4.6092034     0.7555309     1.3501498
C           3.3894151     0.3954713     0.7933824
H           4.6181774     1.2384368     2.3220040
C           3.2584638    -0.2168986    -0.4586138
C           4.4595881    -0.4841253    -1.1314117
H           4.4220960    -1.0004245    -2.0845628
F           2.2719813     0.7201374     1.4967845
C           5.7024923    -0.1278570    -0.6035027
H           6.6067180    -0.3488145    -1.1635084
24
038_C12H11F_2-0-18-16 (-30,) energy =    -563.6934275
C           1.8975655    -0.6430595    -1.0694414
H           1.4522766     0.3120322    -1.4042656
C           0.9145600    -1.2525097    -0.0857453
H           0.5570592    -0.6103363     0.7092032
C           0.4743242    -2.5094968    -0.1687349
H          -0.2379103    -2.8759143     0.5690232
C           0.8797243    -3.4666289    -1.2567827
H           1.5027281    -4.2787643    -0.8442744
H          -0.0112011    -3.9775587    -1.6544305
C           1.6052767    -2.7729278    -2.3770654
H           1.7465698    -3.3347953    -3.2991726
C           2.0453672    -1.5158726    -2.2990842
H           2.5182666    -1.0653842    -3.1689498
C           5.8051809     0.4302076     0.6431746
H           6.7712594     0.6885029     1.0672186
C           4.6592714     0.4890105     1.4319017
C           3.4291764     0.1549322     0.8759638
H           4.6909576     0.7920639     2.4735292
C           3.2638639    -0.2468781    -0.4552727
C           4.4440179    -0.2977787    -1.2158259
H           4.3908729    -0.6256065    -2.2475945
F           2.3521184     0.2748431     1.6940306
C           5.6915174     0.0389842    -0.6899855
H           6.5726551    -0.0168671    -1.3228434
24
038_C12H11F_2-0-18-16 (-15,) energy =    -563.6925785
C           1.9313427    -0.6909813    -1.1213001
H           1.5581567     0.2418277    -1.5803604
C           0.8533487    -1.1808279    -0.1744279
H           0.4877929    -0.4652207     0.5536659
C           0.3226517    -2.4042759    -0.2108508
H          -0.4627622    -2.6644450     0.4969755
C           0.7272235    -3.4640314    -1.1971981
H           1.2151657    -4.3069044    -0.6783761
H          -0.1696998    -3.9072792    -1.6588343
C           1.6322749    -2.9212860    -2.2672627
H           1.8502411    -3.5763207    -3.1096002
C           2.1527222    -1.6933369    -2.2421991
H           2.7707088    -1.3714587    -3.0765294
C           5.7709927     0.5398965     0.6365983
H           6.7210621     0.8514099     1.0609921
C           4.6739261     0.3278651     1.4651694
C           3.4599438    -0.0698557     0.9108889
H           4.7282631     0.4669290     2.5401461
C           3.2745140    -0.2934851    -0.4581421
C           4.4025650    -0.0508405    -1.2626567
H           4.3205933    -0.1812687    -2.3365294
F           2.4361610    -0.2341843     1.7850317
C           5.6287864     0.3533704    -0.7386768
H           6.4690879     0.5221414    -1.4060624
24
038_C12H11F_2-0-18-16 (0,) energy =    -563.6941293
C           2.0275678    -0.7670014    -1.1427102
H           1.6881174     0.1177224    -1.7098816
C           0.9083506    -1.1510371    -0.1992182
H           0.6036811    -0.3948724     0.5182753
C           0.2616492    -2.3172481    -0.2315335
H          -0.5546641    -2.4905788     0.4679016
C           0.5829946    -3.4316910    -1.1871599
H           0.8747700    -4.3379065    -0.6299075
H          -0.3253740    -3.7289237    -1.7372129
C           1.6667445    -3.0547976    -2.1573499
H           1.9346936    -3.7951337    -2.9099094
C           2.2981145    -1.8800132    -2.1439513
H           3.0685406    -1.6866921    -2.8868820
C           5.8113272     0.6380139     0.5729144
H           6.7501016     0.9986765     0.9833420
C           4.7982105     0.2112928     1.4254183
C           3.5967365    -0.2482166     0.8903527
H           4.9101871     0.2260499     2.5048319
C           3.3511443    -0.3232317    -0.4837698
C           4.3900413     0.1391591    -1.3114322
H           4.2355179     0.1415840    -2.3874109
F           2.6567092    -0.6434939     1.7825525
C           5.6020551     0.6039183    -0.8070910
H           6.3755416     0.9455921    -1.4888988
24
038_C12H11F_2-0-18-16 (15,) energy =    -563.6960412
C           2.0522322    -0.7995020    -1.1925988
H           1.7484964     0.0316055    -1.8533965
C           0.8901378    -1.0847687    -0.2678085
H           0.6098517    -0.2849043     0.4133898
C           0.1845048    -2.2164770    -0.2774791
H          -0.6603244    -2.3222828     0.4012061
C           0.4851193    -3.3870168    -1.1722091
H           0.6562867    -4.2910065    -0.5641718
H          -0.3996616    -3.6319730    -1.7838025
C           1.6693715    -3.1385758    -2.0644259
H           1.9614582    -3.9473929    -2.7327839
C           2.3595673    -1.9973092    -2.0768578
H           3.2075909    -1.8890053    -2.7504955
C           5.7620049     0.6971189     0.5771589
H           6.6855262     1.0775436     1.0040810
C           4.8104866     0.1031889     1.4015167
C           3.6289662    -0.3822465     0.8462856
H           4.9591689     0.0033804     2.4719576
C           3.3435724    -0.3063265    -0.5194492
C           4.3198148     0.3139565    -1.3173699
H           4.1252536     0.4179157    -2.3828645
F           2.7472177    -0.9551938     1.6988498
C           5.5140988     0.8028632    -0.7930164
H           6.2419435     1.2722219    -1.4486266
24
038_C12H11F_2-0-18-16 (30,) energy =    -563.6976906
C           2.1591754    -0.8515983    -1.2419287
H           1.8938174    -0.0734774    -1.9785740
C           0.9710521    -1.0263768    -0.3222120
H           0.7191846    -0.1714421     0.3026282
C           0.2188984    -2.1262856    -0.2715397
H          -0.6398535    -2.1558529     0.3972649
C           0.4921209    -3.3660251    -1.0781180
H           0.5978028    -4.2332144    -0.4051320
H          -0.3818041    -3.6108472    -1.7051854
C           1.7187880    -3.2358328    -1.9385200
H           2.0020998    -4.1072483    -2.5272603
C           2.4565434    -2.1268382    -2.0123301
H           3.3346427    -2.1005618    -2.6553436
C           5.8178687     0.6907320     0.5756800
H           6.7288523     1.0804498     1.0208936
C           4.9442675    -0.0758250     1.3440581
C           3.7805425    -0.5712553     0.7634940
H           5.1441443    -0.3036687     2.3861934
C           3.4343318    -0.3306496    -0.5692039
C           4.3321176     0.4530392    -1.3104525
H           4.0888328     0.6760805    -2.3473635
F           2.9725744    -1.3231356     1.5448064
C           5.5110762     0.9541376    -0.7604768
H           6.1803937     1.5552875    -1.3691529
24
038_C12H11F_2-0-18-16 (45,) energy =    -563.6992999
C           2.2171587    -0.8497237    -1.3645509
H           2.0077524    -0.1306523    -2.1744024
C           0.9982357    -0.9016026    -0.4686412
H           0.7428083     0.0257203     0.0418880
C           0.2374514    -1.9836041    -0.3007105
H          -0.6355955    -1.9285220     0.3478120
C           0.5205467    -3.3125959    -0.9454572
H           0.6304222    -4.0870481    -0.1680145
H          -0.3510270    -3.6391603    -1.5372264
C           1.7474208    -3.2853310    -1.8154069
H           2.0195731    -4.2157241    -2.3119242
C           2.4964339    -2.1976257    -2.0042562
H           3.3731078    -2.2453038    -2.6480545
C           5.7945370     0.7228626     0.5734147
H           6.6835397     1.1181315     1.0566637
C           5.0065949    -0.2184356     1.2353233
C           3.8720661    -0.7173041     0.6052526
H           5.2541213    -0.5781467     2.2289260
C           3.4724380    -0.3128907    -0.6728147
C           4.2836644     0.6379833    -1.3071995
H           3.9969374     0.9847711    -2.2977454
F           3.1441821    -1.6428590     1.2676421
C           5.4334662     1.1502565    -0.7047938
H           6.0382724     1.8848307    -1.2286743
24
038_C12H11F_2-0-18-16 (60,) energy =    -563.7005242
C           2.2212425    -0.9047997    -1.4622025
H           2.1020876    -0.2312140    -2.3270021
C           0.9546547    -0.8290724    -0.6352024
H           0.6785954     0.1611422    -0.2762640
C           0.1965189    -1.8845948    -0.3361912
H          -0.7011260    -1.7484996     0.2652556
C           0.5124670    -3.2877464    -0.7771173
H           0.6802854    -3.9253094     0.1074068
H          -0.3644815    -3.7315653    -1.2760734
C           1.7091914    -3.3577126    -1.6862106
H           1.9536073    -4.3337269    -2.1030540
C           2.4665043    -2.3031863    -1.9917493
H           3.3258771    -2.4195217    -2.6500561
C           5.6770363     0.6173102     0.7128237
H           6.5364464     0.9943800     1.2599708
C           4.9619308    -0.4717691     1.2128395
C           3.8651067    -0.9431742     0.5021076
H           5.2374542    -0.9628515     2.1406450
C           3.4372589    -0.3733434    -0.7022775
C           4.1757448     0.7183392    -1.1758157
H           3.8690142     1.1875653    -2.1080843
F           3.1942366    -2.0031623     1.0046643
C           5.2837579     1.2136241    -0.4854835
H           5.8342358     2.0619539    -0.8819658
24
038_C12H11F_2-0-18-16 (75,) energy =    -563.6999956
C           2.3008408    -0.9861974    -1.4315079
H           2.2315554    -0.3823128    -2.3528840
C           1.0013436    -0.8031235    -0.6735957
H           0.7760788     0.2119472    -0.3513031
C           0.1592965    -1.7992981    -0.3935238
H          -0.7574362    -1.5898907     0.1560311
C           0.3950441    -3.2294045    -0.7986007
H           0.4150645    -3.8723059     0.0974176
H          -0.4640136    -3.5989592    -1.3829538
C           1.6664115    -3.4131571    -1.5822408
H           1.8864750    -4.4210529    -1.9310182
C           2.5189597    -2.4235777    -1.8506172
H           3.4298790    -2.6243681    -2.4121946
C           5.6918735     0.7032331     0.7231387
H           6.5404676     1.1190524     1.2589539
C           5.1224216    -0.4960425     1.1524082
C           4.0369335    -1.0154494     0.4573957
H           5.5002174    -1.0350439     2.0153284
C           3.4831948    -0.3913682    -0.6656965
C           4.0805583     0.8086709    -1.0721430
H           3.6808626     1.3172160    -1.9468524
F           3.4940549    -2.1687195     0.9054469
C           5.1675287     1.3593710    -0.3908180
H           5.6050725     2.2926232    -0.7335204
24
038_C12H11F_2-0-18-16 (90,) energy =    -563.6985390
C           2.3788286    -1.0674280    -1.4167723
H           2.3627875    -0.5381573    -2.3863065
C           1.0566224    -0.7753327    -0.7326823
H           0.8872860     0.2601972    -0.4432072
C           0.1296420    -1.7019804    -0.4837104
H          -0.7988187    -1.4138981     0.0074761
C           0.2814589    -3.1534068    -0.8513904
H           0.1495442    -3.7819591     0.0450396
H          -0.5406094    -3.4566182    -1.5216275
C           1.6082517    -3.4562831    -1.4939951
H           1.7942462    -4.4933435    -1.7689540
C           2.5480156    -2.5381654    -1.7223445
H           3.4928465    -2.8280666    -2.1786663
C           5.6941342     0.8184280     0.7015522
H           6.5205338     1.2905042     1.2252507
C           5.3101518    -0.4782527     1.0398480
C           4.2494073    -1.0709640     0.3630683
H           5.8120227    -1.0410848     1.8203835
C           3.5442410    -0.4269943    -0.6582241
C           3.9616741     0.8730246    -0.9780270
H           3.4450780     1.4009178    -1.7769872
F           3.8956126    -2.3223173     0.7316917
C           5.0144749     1.4984887    -0.3101443
H           5.3078400     2.5073564    -0.5857455
24
038_C12H11F_2-0-18-16 (105,) energy =    -563.6969488
C           2.4202354    -1.1604742    -1.4550222
H           2.4795151    -0.6934767    -2.4550905
C           1.0798478    -0.7615884    -0.8644227
H           0.9502486     0.2958952    -0.6418664
C           0.0917139    -1.6224152    -0.6151957
H          -0.8438300    -1.2575910    -0.1933598
C           0.1831097    -3.0987794    -0.8906312
H          -0.0291248    -3.6655297     0.0312995
H          -0.6184167    -3.3989277    -1.5866230
C           1.5227268    -3.5047977    -1.4429793
H           1.6642618    -4.5632600    -1.6556368
C           2.5234510    -2.6524777    -1.6684214
H           3.4688269    -3.0192037    -2.0621986
C           5.6856830     0.8012695     0.6841766
H           6.4977270     1.2979923     1.2074431
C           5.4474487    -0.5537329     0.9007673
C           4.4034419    -1.1801658     0.2255733
H           6.0508991    -1.1412373     1.5853016
C           3.5711762    -0.5111190    -0.6756744
C           3.8477630     0.8504424    -0.8780301
H           3.2344616     1.4018861    -1.5879198
F           4.2062009    -2.4938947     0.4823161
C           4.8787158     1.5080395    -0.2096768
H           5.0575029     2.5634535    -0.3940269
24
038_C12H11F_2-0-18-16 (120,) energy =    -563.6951874
C           2.4660883    -1.2544870    -1.4876720
H           2.6029928    -0.8574208    -2.5105757
C           1.1077388    -0.7722486    -1.0085846
H           0.9909547     0.3027376    -0.8895833
C           0.0852316    -1.5814495    -0.7278356
H          -0.8572270    -1.1547194    -0.3872979
C           0.1460155    -3.0785310    -0.8587329
H          -0.0970765    -3.5498696     0.1083992
H          -0.6488034    -3.4264851    -1.5397245
C           1.4846535    -3.5621311    -1.3456388
H           1.5943973    -4.6356677    -1.4909694
C           2.5190319    -2.7601091    -1.6029828
H           3.4538509    -3.1855107    -1.9572906
C           5.6672842     0.7972298     0.6824022
H           6.4613550     1.3193106     1.2084736
C           5.5658393    -0.5875001     0.7755920
C           4.5440351    -1.2480565     0.0971929
H           6.2615820    -1.1767683     1.3643140
C           3.5919906    -0.5837413    -0.6803819
C           3.7383056     0.8116571    -0.7660347
H           3.0400317     1.3680557    -1.3872922
F           4.4991158    -2.5947944     0.2338675
C           4.7459705     1.5010713    -0.0960821
H           4.8169994     2.5809731    -0.1889952
24
038_C12H11F_2-0-18-16 (135,) energy =    -563.6932295
C           2.5146839    -1.2788796    -1.5153290
H           2.7495003    -0.9549360    -2.5462353
C           1.1362982    -0.7328017    -1.1848940
H           1.0090562     0.3454349    -1.2364289
C           0.0932835    -1.4904836    -0.8420143
H          -0.8606173    -1.0154393    -0.6168955
C           0.1430364    -2.9906418    -0.7571449
H          -0.0767001    -3.3178379     0.2734134
H          -0.6701524    -3.4248909    -1.3616193
C           1.4658936    -3.5449015    -1.2082077
H           1.5461679    -4.6285373    -1.2787437
C           2.5185783    -2.7917810    -1.5313730
H           3.4336646    -3.2694150    -1.8654629
C           5.6326906     0.8086539     0.7654997
H           6.4066591     1.3374714     1.3142305
C           5.6461612    -0.5810620     0.7080368
C           4.6502536    -1.2499574     0.0001073
H           6.4147557    -1.1703545     1.1978046
C           3.6030989    -0.5951322    -0.6560228
C           3.6379775     0.8096618    -0.5929232
H           2.8735393     1.3758708    -1.1169231
F           4.7363134    -2.6029179    -0.0132437
C           4.6207712     1.5074091     0.1051422
H           4.5984459     2.5932167     0.1266004
24
038_C12H11F_2-0-18-16 (150,) energy =    -563.6926487
C           2.5802255    -1.3184523    -1.6831688
H           2.9071035    -1.1064103    -2.7162383
C           1.1992610    -0.7124778    -1.5044953
H           1.0669139     0.3173823    -1.8281028
C           0.1515974    -1.3670645    -1.0011704
H          -0.8030851    -0.8525513    -0.9025177
C           0.1997210    -2.8098049    -0.5813198
H           0.0931272    -2.8924091     0.5139774
H          -0.6756579    -3.3426015    -0.9848278
C           1.4631335    -3.4839081    -1.0403044
H           1.4943969    -4.5704959    -0.9771358
C           2.5142405    -2.8287252    -1.5361112
H           3.3783793    -3.3878733    -1.8747525
C           5.5194116     0.7273382     0.8758141
H           6.2416609     1.2360117     1.5078289
C           5.6912943    -0.6179139     0.5635535
C           4.7594149    -1.2581390    -0.2477908
H           6.5368927    -1.1912543     0.9297487
C           3.6269415    -0.6242850    -0.7730442
C           3.4937151     0.7349851    -0.4400866
H           2.6376217     1.2866930    -0.8114878
F           5.0160519    -2.5594091    -0.5333852
C           4.4144876     1.4063586     0.3633674
H           4.2614454     2.4573969     0.5911890
24
038_C12H11F_2-0-18-16 (165,) energy =    -563.6952830
C           2.6345553    -1.3536719    -1.7382331
H           3.0071212    -1.2872465    -2.7746100
C           1.2640131    -0.7094657    -1.6826275
H           1.1801266     0.2866491    -2.1147140
C           0.1727947    -1.2818880    -1.1716129
H          -0.7695833    -0.7362401    -1.1806474
C           0.1555290    -2.6695118    -0.5966937
H          -0.0497022    -2.6302411     0.4868391
H          -0.6911437    -3.2355751    -1.0169120
C           1.4417640    -3.4006466    -0.8604663
H           1.4601208    -4.4640241    -0.6260831
C           2.5318699    -2.8292514    -1.3759047
H           3.4139133    -3.4326067    -1.5522661
C           5.4853068     0.6865120     0.9086394
H           6.1846894     1.1765745     1.5798942
C           5.8005753    -0.5557014     0.3612386
C           4.8939896    -1.1693331    -0.4939473
H           6.7363278    -1.0610508     0.5775764
C           3.6621240    -0.6078157    -0.8521575
C           3.3773968     0.6386463    -0.2736693
H           2.4225297     1.1077391    -0.4821578
F           5.2802530    -2.3519783    -1.0405552
C           4.2703243     1.2863061     0.5820559
H           4.0053300     2.2524822     1.0019969
24
038_C12H11F_2-0-18-16 (180,) energy =    -563.6993994
C           2.6039529    -1.3701671    -1.6397953
H           3.0247234    -1.4165126    -2.6583659
C           1.2464856    -0.7082586    -1.7101098
H           1.2183807     0.2820001    -2.1636025
C           0.1083712    -1.2583062    -1.2827587
H          -0.8239125    -0.7053779    -1.3885632
C           0.0232448    -2.6268019    -0.6682318
H          -0.3574505    -2.5536014     0.3646797
H          -0.7355245    -3.2261677    -1.1977439
C           1.3455867    -3.3413645    -0.6843318
H           1.3534160    -4.3682777    -0.3215603
C           2.4824130    -2.7956825    -1.1197371
H           3.3974035    -3.3785025    -1.1074522
C           5.4655460     0.7431155     0.9045599
H           6.1802778     1.2469360     1.5489934
C           5.8465431    -0.4050511     0.2090719
C           4.9158905    -1.0321979    -0.6069749
H           6.8460301    -0.8210003     0.2849737
C           3.6067758    -0.5725122    -0.7861049
C           3.2537276     0.5728164    -0.0610936
H           2.2376460     0.9464505    -0.1351481
F           5.3232584    -2.1298069    -1.2984019
C           4.1674983     1.2320958     0.7648837
H           3.8574723     2.1212976     1.3064350
