26
029_C12H13N_2-0-21-19 (-165,) energy =    -519.8244958
C           1.0028370    -0.9610368     0.4235447
H           0.7011983    -1.3474380     1.4128526
C           1.7787009     0.3343783     0.6272117
C           1.2131427     1.3338926     1.6002489
H           1.1391632     0.8999513     2.6085267
H           0.1977401     1.6455912     1.3217196
H           1.8350781     2.2333947     1.6688717
C           2.9316471     0.5679493    -0.0237515
H           3.4809269     1.4965886     0.1028439
N           3.5148273    -0.3460666    -0.9030469
H           4.4927518    -0.2150855    -1.1154929
C           3.0360005    -1.6553696    -0.8802515
H           3.6438506    -2.3806606    -1.4119889
C           1.8992225    -1.9873332    -0.2528027
H           1.5634060    -3.0192273    -0.2834229
C          -2.6371252    -0.6380855    -1.9517004
H          -3.5398866    -0.5744434    -2.5536322
C          -2.4087533    -1.7520485    -1.1405477
H          -3.1339488    -2.5615843    -1.1086586
C          -1.2506077    -1.8273933    -0.3676617
H          -1.0849182    -2.6964153     0.2671127
C          -0.3011165    -0.7957352    -0.3823151
C          -0.5331555     0.3060116    -1.2125785
H           0.2066350     1.1006335    -1.2581801
C          -1.6945687     0.3899053    -1.9840160
H          -1.8588421     1.2592741    -2.6162056
26
029_C12H13N_2-0-21-19 (-150,) energy =    -519.8259238
C           1.0410121    -1.0098301     0.3597937
H           0.7634588    -1.4728973     1.3235525
C           1.7694137     0.2979703     0.6464746
C           1.1257202     1.2448232     1.6225256
H           0.9964961     0.7673269     2.6053056
H           0.1242406     1.5501287     1.2915095
H           1.7243430     2.1510450     1.7668432
C           2.9437101     0.5898318     0.0604425
H           3.4600294     1.5258485     0.2541243
N           3.5869283    -0.2590041    -0.8424864
H           4.5733538    -0.1071301    -0.9925115
C           3.1154095    -1.5661989    -0.9493905
H           3.7426343    -2.2384137    -1.5266089
C           1.9591470    -1.9571582    -0.3954664
H           1.6255428    -2.9805261    -0.5381922
C          -2.6572980    -0.6264313    -1.9059310
H          -3.5759066    -0.5451817    -2.4812247
C          -2.5083149    -1.6391584    -0.9567327
H          -3.3120794    -2.3518081    -0.7884618
C          -1.3285415    -1.7353309    -0.2174509
H          -1.2221773    -2.5229105     0.5268593
C          -0.2788395    -0.8280581    -0.4102351
C          -0.4358829     0.1764458    -1.3728686
H           0.3752963     0.8802746    -1.5406814
C          -1.6165462     0.2818438    -2.1094800
H          -1.7225210     1.0737032    -2.8471158
26
029_C12H13N_2-0-21-19 (-135,) energy =    -519.8266316
C           1.0699206    -1.0568931     0.2998302
H           0.8114506    -1.5844198     1.2356585
C           1.7495126     0.2591986     0.6642546
C           1.0454377     1.1443569     1.6556040
H           0.8933118     0.6210605     2.6115113
H           0.0489545     1.4377706     1.2998127
H           1.6133980     2.0584605     1.8607846
C           2.9288731     0.6133524     0.1251010
H           3.4091152     1.5555891     0.3737566
N           3.6204039    -0.1688023    -0.8030644
H           4.6082162     0.0092681    -0.9091774
C           3.1775780    -1.4740262    -1.0082091
H           3.8291750    -2.0920307    -1.6182380
C           2.0170018    -1.9245727    -0.5108783
H           1.7057203    -2.9403499    -0.7352774
C          -2.6764471    -0.5884020    -1.8654213
H          -3.6090859    -0.4802599    -2.4130764
C          -2.5894254    -1.4772771    -0.7935805
H          -3.4554257    -2.0660032    -0.5009398
C          -1.3897127    -1.6091252    -0.0907485
H          -1.3295286    -2.2998569     0.7485352
C          -0.2604690    -0.8621367    -0.4451597
C          -0.3585493     0.0227669    -1.5272930
H           0.5124379     0.6061984    -1.8146935
C          -1.5557143     0.1628570    -2.2287258
H          -1.6145873     0.8584180    -3.0624325
26
029_C12H13N_2-0-21-19 (-120,) energy =    -519.8268601
C           1.1074905    -1.1086268     0.2488862
H           0.8649669    -1.6917174     1.1557678
C           1.7378175     0.2112182     0.6881427
C           0.9898988     1.0243688     1.7079872
H           0.8328244     0.4484760     2.6324288
H          -0.0068353     1.3100363     1.3467212
H           1.5288499     1.9409335     1.9717973
C           2.9111872     0.6297535     0.1840152
H           3.3548218     1.5751613     0.4834290
N           3.6407585    -0.0818907    -0.7725200
H           4.6247269     0.1293507    -0.8504035
C           3.2403944    -1.3863639    -1.0541358
H           3.9179851    -1.9509170    -1.6873164
C           2.0867971    -1.8974223    -0.6001798
H           1.8094412    -2.9077073    -0.8856679
C          -2.6760056    -0.5505385    -1.8278021
H          -3.6194859    -0.4131707    -2.3497570
C          -2.6271506    -1.2929045    -0.6479255
H          -3.5337320    -1.7374752    -0.2446625
C          -1.4118644    -1.4654696     0.0193363
H          -1.3798480    -2.0446483     0.9404192
C          -0.2305440    -0.9049771    -0.4785165
C          -0.2920008    -0.1627342    -1.6660646
H           0.6191353     0.2756226    -2.0649978
C          -1.5026015     0.0151774    -2.3343869
H          -1.5318856     0.5951513    -3.2536537
26
029_C12H13N_2-0-21-19 (-105,) energy =    -519.8266859
C           1.1340631    -1.1457701     0.1984858
H           0.9009033    -1.7796440     1.0732801
C           1.7171267     0.1699340     0.7154144
C           0.9431015     0.9005860     1.7769994
H           0.8007220     0.2680619     2.6662458
H          -0.0605276     1.1792002     1.4298592
H           1.4558906     1.8147873     2.0954218
C           2.8739646     0.6572801     0.2356021
H           3.2838056     1.6009122     0.5844948
N           3.6309899     0.0210423    -0.7523825
H           4.6044471     0.2780715    -0.8224503
C           3.2854610    -1.2842263    -1.0936372
H           3.9919027    -1.7958216    -1.7401873
C           2.1488808    -1.8587192    -0.6729539
H           1.9167767    -2.8679796    -0.9995220
C          -2.6699696    -0.5074267    -1.8184670
H          -3.6197761    -0.3440771    -2.3211107
C          -2.6372096    -1.0792908    -0.5463486
H          -3.5625868    -1.3644297    -0.0518449
C          -1.4137109    -1.2897929     0.0938397
H          -1.3934044    -1.7404574     1.0845133
C          -0.2074931    -0.9359199    -0.5216987
C          -0.2538245    -0.3598509    -1.7983745
H           0.6757643    -0.0828990    -2.2885399
C          -1.4724797    -0.1481833    -2.4425235
H          -1.4887574     0.2972575    -3.4343111
26
029_C12H13N_2-0-21-19 (-90,) energy =    -519.8259510
C           1.1509991    -1.1678944     0.1566490
H           0.9299965    -1.8518279     0.9967725
C           1.6903684     0.1349570     0.7536837
C           0.9036470     0.7813509     1.8594863
H           0.7776381     0.0925245     2.7086371
H          -0.1061816     1.0627355     1.5339536
H           1.4003881     1.6836956     2.2324342
C           2.8319159     0.6839894     0.3044373
H           3.2129887     1.6176281     0.7083633
N           3.6111999     0.1263021    -0.7130555
H           4.5739406     0.4236930    -0.7693167
C           3.3166002    -1.1730872    -1.1162582
H           4.0487551    -1.6307905    -1.7744823
C           2.1976035    -1.8057107    -0.7329942
H           2.0069925    -2.8087116    -1.1031044
C          -2.6700685    -0.4820907    -1.8190630
H          -3.6240456    -0.3020133    -2.3079218
C          -2.6278421    -0.8588910    -0.4757644
H          -3.5504208    -0.9746927     0.0878095
C          -1.4002317    -1.0939830     0.1458469
H          -1.3757036    -1.4000268     1.1901348
C          -0.1958475    -0.9587770    -0.5572782
C          -0.2521691    -0.5740886    -1.9026605
H           0.6745190    -0.4639209    -2.4592765
C          -1.4767224    -0.3419427    -2.5303977
H          -1.4990551    -0.0502565    -3.5776736
26
029_C12H13N_2-0-21-19 (-75,) energy =    -519.8241059
C           1.1584274    -1.1721245     0.1357737
H           0.9531531    -1.9060012     0.9377057
C           1.6654977     0.1050099     0.8161256
C           0.9035660     0.6572629     1.9887290
H           0.7808658    -0.1032028     2.7746679
H          -0.1053324     0.9866468     1.7099643
H           1.4224086     1.5141961     2.4321724
C           2.7768726     0.7209660     0.3762707
H           3.1407787     1.6364553     0.8338974
N           3.5514905     0.2535563    -0.6887817
H           4.4953215     0.6039157    -0.7569373
C           3.3149515    -1.0410857    -1.1405031
H           4.0659500    -1.4421402    -1.8141771
C           2.2297474    -1.7376229    -0.7714958
H           2.0878000    -2.7394115    -1.1659887
C          -2.6731493    -0.4684402    -1.8274385
H          -3.6274510    -0.2794070    -2.3122529
C          -2.6072601    -0.6345552    -0.4425670
H          -3.5122773    -0.5774842     0.1573443
C          -1.3810456    -0.8807667     0.1755355
H          -1.3473581    -1.0347875     1.2517366
C          -0.1969583    -0.9711537    -0.5714645
C          -0.2773484    -0.7918049    -1.9574623
H           0.6323372    -0.8430748    -2.5491147
C          -1.5028025    -0.5511561    -2.5822262
H          -1.5410429    -0.4240909    -3.6614990
26
029_C12H13N_2-0-21-19 (-60,) energy =    -519.8207490
C           1.1522167    -1.1778683     0.1110366
H           0.9533286    -1.9557525     0.8719788
C           1.6545182     0.0577547     0.8698274
C           0.9849800     0.4845841     2.1488315
H           0.8624075    -0.3673524     2.8334487
H          -0.0142965     0.9062249     1.9847934
H           1.5774217     1.2456790     2.6687134
C           2.7123451     0.7475115     0.4062017
H           3.0802648     1.6368650     0.9098576
N           3.4375940     0.3778333    -0.7302083
H           4.3505733     0.7933406    -0.8403164
C           3.2705867    -0.9216504    -1.2001317
H           4.0309589    -1.2686702    -1.8929291
C           2.2421268    -1.6875770    -0.8074476
H           2.1601881    -2.6990887    -1.1936253
C          -2.6616862    -0.4682705    -1.9094675
H          -3.6068886    -0.2784540    -2.4114131
C          -2.5725049    -0.3875381    -0.5185284
H          -3.4508659    -0.1360394     0.0710169
C          -1.3583827    -0.6310008     0.1233853
H          -1.3243399    -0.5997696     1.2080703
C          -0.2052854    -0.9711723    -0.6021807
C          -0.3095490    -1.0341996    -1.9972392
H           0.5751681    -1.2639265    -2.5832042
C          -1.5239317    -0.7967685    -2.6451922
H          -1.5756126    -0.8613309    -3.7294972
26
029_C12H13N_2-0-21-19 (-45,) energy =    -519.8179765
C           1.1439995    -1.1854305     0.1347781
H           0.9051467    -2.0027162     0.8353155
C           1.6459077     0.0017751     0.9644668
C           1.1887999     0.1818750     2.3884690
H           1.4151646    -0.7164677     2.9815087
H           0.1097564     0.3518746     2.4887037
H           1.6981352     1.0269975     2.8650773
C           2.5679749     0.8239359     0.4316784
H           2.9317218     1.7054159     0.9517924
N           3.1824379     0.5610802    -0.7967299
H           3.9893256     1.1197924    -1.0296686
C           3.1749887    -0.7611328    -1.2363119
H           3.9528304    -1.0256726    -1.9459101
C           2.2770724    -1.6405206    -0.7653854
H           2.3288723    -2.6779744    -1.0796699
C          -2.5717092    -0.4369251    -2.0621890
H          -3.4954042    -0.2569926    -2.6060964
C          -2.4403302    -0.0248656    -0.7351541
H          -3.2641224     0.4809575    -0.2371737
C          -1.2537698    -0.2564014    -0.0392450
H          -1.1845160     0.0710649     0.9919947
C          -0.1666788    -0.9046408    -0.6454835
C          -0.3126451    -1.3034722    -1.9802941
H           0.5190577    -1.7842702    -2.4849761
C          -1.4997416    -1.0782889    -2.6807864
H          -1.5805460    -1.4005278    -3.7162764
26
029_C12H13N_2-0-21-19 (-30,) energy =    -519.8182522
C           1.1433011    -1.1947926     0.1006520
H           0.9121454    -2.0633058     0.7377168
C           1.6201379    -0.0565112     1.0032185
C           1.1556711    -0.0026326     2.4351658
H           1.5092925    -0.8850468     2.9890728
H           0.0627099     0.0010058     2.5341636
H           1.5417497     0.8840617     2.9507735
C           2.5043989     0.8343935     0.5204648
H           2.8407713     1.6934483     1.0938019
N           3.1119112     0.6720999    -0.7282168
H           3.8902813     1.2781170    -0.9385579
C           3.1508525    -0.6206991    -1.2485727
H           3.9330142    -0.8113403    -1.9768028
C           2.2910456    -1.5607181    -0.8265287
H           2.3876116    -2.5766791    -1.1946204
C          -2.5860544    -0.4397336    -2.0617291
H          -3.5183445    -0.2686543    -2.5936830
C          -2.3333443     0.2078258    -0.8524061
H          -3.0688336     0.8917749    -0.4355182
C          -1.1352231    -0.0134698    -0.1706786
H          -0.9547479     0.5196169     0.7564312
C          -0.1575504    -0.8782449    -0.6807700
C          -0.4260981    -1.5195256    -1.8980599
H           0.3158447    -2.1867186    -2.3262357
C          -1.6232698    -1.3050485    -2.5822418
H          -1.8004822    -1.8134164    -3.5270729
26
029_C12H13N_2-0-21-19 (-15,) energy =    -519.8199147
C           1.1837439    -1.1866458     0.0434755
H           0.9964782    -2.1052218     0.6225930
C           1.6294626    -0.0931567     1.0104273
C           1.0884053    -0.1093517     2.4161719
H           1.4102234    -1.0185909     2.9454613
H          -0.0089645    -0.1096496     2.4449864
H           1.4404504     0.7511101     2.9965497
C           2.5224694     0.8300390     0.6126745
H           2.8313140     1.6516744     1.2524759
N           3.1604913     0.7668572    -0.6285707
H           3.9575942     1.3703452    -0.7628047
C           3.1841264    -0.4728035    -1.2663726
H           3.9549969    -0.5970194    -2.0204170
C           2.3218610    -1.4448167    -0.9334577
H           2.4032582    -2.4119232    -1.4181922
C          -2.6025414    -0.4620855    -2.0186600
H          -3.5496838    -0.2998490    -2.5265422
C          -2.2253380     0.3514657    -0.9512728
H          -2.8779058     1.1565696    -0.6219313
C          -1.0077562     0.1409256    -0.2988798
H          -0.7202348     0.8023292     0.5119687
C          -0.1357832    -0.8758055    -0.7044418
C          -0.5326538    -1.6908886    -1.7752795
H           0.1186351    -2.4948003    -2.1081974
C          -1.7472743    -1.4870211    -2.4287938
H          -2.0262023    -2.1303679    -3.2599118
26
029_C12H13N_2-0-21-19 (0,) energy =    -519.8221599
C           1.2104492    -1.1599747    -0.0117564
H           1.0836805    -2.1251971     0.5060015
C           1.6215043    -0.1115016     1.0157008
C           0.9918094    -0.1797062     2.3820479
H           1.2488335    -1.1250783     2.8825788
H          -0.1044641    -0.1429363     2.3353196
H           1.3293905     0.6392671     3.0272814
C           2.5409665     0.8221542     0.7149334
H           2.8249136     1.5981522     1.4200184
N           3.2202189     0.8527917    -0.5048698
H           4.0560952     1.4169253    -0.5442321
C           3.2047640    -0.3128229    -1.2710339
H           3.9561565    -0.3659846    -2.0525504
C           2.3232594    -1.2962798    -1.0419901
H           2.3595878    -2.1884682    -1.6586694
C          -2.6333562    -0.4819222    -1.9680812
H          -3.5935686    -0.3285794    -2.4536587
C          -2.1481849     0.4515156    -1.0532743
H          -2.7302961     1.3402979    -0.8216139
C          -0.9140380     0.2525672    -0.4282409
H          -0.5372219     0.9981110     0.2656063
C          -0.1366099    -0.8744736    -0.7129160
C          -0.6434962    -1.8128806    -1.6247406
H          -0.0686388    -2.7097346    -1.8463951
C          -1.8729134    -1.6189830    -2.2521422
H          -2.2409524    -2.3586774    -2.9590831
26
029_C12H13N_2-0-21-19 (15,) energy =    -519.8242714
C           1.2542461    -1.1519796    -0.0739903
H           1.1876995    -2.1532471     0.3854119
C           1.6338464    -0.1491626     1.0085410
C           0.9328510    -0.2616147     2.3360542
H           1.1304932    -1.2388845     2.8011924
H          -0.1572565    -0.1828267     2.2314545
H           1.2613072     0.5135714     3.0374061
C           2.5736896     0.7876162     0.7914478
H           2.8375422     1.5197171     1.5493704
N           3.2864951     0.8942235    -0.4038494
H           4.1408048     1.4308238    -0.3805729
C           3.2342205    -0.1873920    -1.2822011
H           3.9664228    -0.1701986    -2.0833420
C           2.3362408    -1.1726769    -1.1439413
H           2.3303281    -1.9842624    -1.8649317
C          -2.6380881    -0.5089522    -1.9309093
H          -3.6081373    -0.3584519    -2.3974838
C          -2.0532343     0.5092253    -1.1779486
H          -2.5673460     1.4593948    -1.0541872
C          -0.8067557     0.3153539    -0.5776877
H          -0.3517167     1.1179491    -0.0037574
C          -0.1209195    -0.8950220    -0.7224101
C          -0.7265528    -1.9158178    -1.4692191
H          -0.2192855    -2.8734518    -1.5746439
C          -1.9678489    -1.7260939    -2.0751230
H          -2.4163064    -2.5307406    -2.6527876
26
029_C12H13N_2-0-21-19 (30,) energy =    -519.8257408
C           1.2807461    -1.1368495    -0.1355644
H           1.2678705    -2.1669032     0.2626764
C           1.6315646    -0.1855341     1.0023593
C           0.8805713    -0.3510038     2.2957570
H           1.0343419    -1.3576188     2.7124992
H          -0.2021397    -0.2351273     2.1548961
H           1.2025265     0.3757841     3.0497939
C           2.5827800     0.7543540     0.8620629
H           2.8285155     1.4420601     1.6663402
N           3.3196239     0.9354662    -0.3098034
H           4.1883364     1.4431858    -0.2317337
C           3.2440628    -0.0609144    -1.2816006
H           3.9623935     0.0264043    -2.0907980
C           2.3355415    -1.0448238    -1.2270239
H           2.3033230    -1.7775470    -2.0277005
C          -2.6615495    -0.5237887    -1.8832516
H          -3.6427028    -0.3757718    -2.3268934
C          -1.9761005     0.5518032    -1.3156114
H          -2.4236664     1.5428051    -1.3147807
C          -0.7159670     0.3618014    -0.7460728
H          -0.1837247     1.2029510    -0.3095075
C          -0.1190326    -0.9042934    -0.7319815
C          -0.8221551    -1.9780723    -1.2935615
H          -0.3793272    -2.9726552    -1.2756206
C          -2.0787640    -1.7924540    -1.8710717
H          -2.6060745    -2.6394394    -2.3032499
26
029_C12H13N_2-0-21-19 (45,) energy =    -519.8265600
C           1.3133139    -1.1223189    -0.2053168
H           1.3428390    -2.1750361     0.1288624
C           1.6310498    -0.2310578     0.9910439
C           0.8459897    -0.4682758     2.2518555
H           0.9815176    -1.4994074     2.6111765
H          -0.2316496    -0.3348588     2.0891066
H           1.1524443     0.2097052     3.0560361
C           2.5768215     0.7219273     0.9251383
H           2.7977673     1.3647444     1.7726364
N           3.3310264     0.9843512    -0.2209978
H           4.2025304     1.4775464    -0.0945759
C           3.2579951     0.0680273    -1.2684434
H           3.9715050     0.2260315    -2.0712851
C           2.3532510    -0.9208649    -1.2942167
H           2.3193438    -1.5822092    -2.1547880
C          -2.6773140    -0.5263628    -1.8386275
H          -3.6710961    -0.3790440    -2.2535247
C          -1.8909229     0.5735545    -1.4867928
H          -2.2731490     1.5818005    -1.6270804
C          -0.6154283     0.3843999    -0.9551085
H          -0.0057501     1.2422770    -0.6832264
C          -0.1033137    -0.9053389    -0.7615868
C          -0.9032368    -1.9994668    -1.1111053
H          -0.5227698    -3.0078955    -0.9578518
C          -2.1785316    -1.8156869    -1.6497034
H          -2.7833738    -2.6793398    -1.9151468
26
029_C12H13N_2-0-21-19 (60,) energy =    -519.8268577
C           1.3453708    -1.1105977    -0.2714568
H           1.4056735    -2.1802433    -0.0006742
C           1.6288153    -0.2865233     0.9826442
C           0.8318752    -0.6142514     2.2147628
H           0.9814656    -1.6628280     2.5131374
H          -0.2457947    -0.4901263     2.0449886
H           1.1151964     0.0189704     3.0626503
C           2.5502874     0.6917223     0.9851993
H           2.7438065     1.2903619     1.8709012
N           3.3101612     1.0414815    -0.1345092
H           4.1704477     1.5423111     0.0324741
C           3.2654149     0.1933602    -1.2390474
H           3.9814131     0.4182880    -2.0235865
C           2.3819855    -0.8105175    -1.3381101
H           2.3695059    -1.4146682    -2.2403201
C          -2.6876595    -0.5150185    -1.7938454
H          -3.6934144    -0.3649944    -2.1777949
C          -1.8087231     0.5659305    -1.6814365
H          -2.1306737     1.5611057    -1.9785340
C          -0.5180011     0.3731700    -1.1908517
H           0.1642042     1.2153033    -1.1078517
C          -0.0819252    -0.9005013    -0.8002778
C          -0.9711549    -1.9744545    -0.9159396
H          -0.6468553    -2.9693606    -0.6161438
C          -2.2646253    -1.7874918    -1.4098724
H          -2.9399227    -2.6356061    -1.4926053
26
029_C12H13N_2-0-21-19 (75,) energy =    -519.8266697
C           0.9510438    -0.6813851     0.5752325
H           0.6176259    -0.4842165     1.6104517
C           1.9465002     0.4130851     0.1882372
C           1.5216253     1.8400790     0.3958574
H           1.2715375     2.0271059     1.4511714
H           0.6227373     2.0856676    -0.1846991
H           2.3109637     2.5435977     0.1093416
C           3.1534210     0.1119174    -0.3201204
H           3.8575663     0.8855170    -0.6132138
N           3.5972984    -1.1955742    -0.5383938
H           4.5940940    -1.3358902    -0.6122559
C           2.8411268    -2.2347321    -0.0017406
H           3.3002318    -3.2170522    -0.0574467
C           1.6217899    -2.0395093     0.5216602
H           1.0644493    -2.8948506     0.8917280
C          -2.6623039    -0.5193335    -1.8473390
H          -3.5642420    -0.4792761    -2.4526262
C          -1.4747367    -1.0212396    -2.3858884
H          -1.4507797    -1.3739734    -3.4141497
C          -0.3184162    -1.0754809    -1.6080078
H           0.6019724    -1.4722825    -2.0281313
C          -0.3249995    -0.6277881    -0.2801622
C          -1.5219546    -0.1316517     0.2493982
H          -1.5453457     0.2105954     1.2824680
C          -2.6827885    -0.0741454    -0.5252656
H          -3.6022760     0.3140571    -0.0939793
26
029_C12H13N_2-0-21-19 (90,) energy =    -519.8258782
C           0.9530839    -0.7281010     0.5523246
H           0.6044807    -0.5946842     1.5929807
C           1.9232478     0.4156225     0.2428737
C           1.4757819     1.8184636     0.5451837
H           1.2147016     1.9288309     1.6087090
H           0.5799161     2.0947176    -0.0258942
H           2.2590950     2.5492387     0.3161026
C           3.1359264     0.1744498    -0.2839109
H           3.8235638     0.9800694    -0.5251106
N           3.6104353    -1.1066302    -0.5794336
H           4.6091826    -1.2160670    -0.6741959
C           2.8892222    -2.1928641    -0.0923212
H           3.3812304    -3.1558864    -0.1888436
C           1.6653741    -2.0597326     0.4404736
H           1.1385356    -2.9475752     0.7773512
C          -2.6659284    -0.5081985    -1.8642849
H          -3.5703736    -0.4527566    -2.4645933
C          -1.5563127    -1.2189608    -2.3257186
H          -1.5950241    -1.7217312    -3.2890996
C          -0.3964647    -1.2922331    -1.5528769
H           0.4630390    -1.8509917    -1.9129590
C          -0.3204572    -0.6541416    -0.3087259
C          -1.4462712     0.0429882     0.1496725
H          -1.4146183     0.5219755     1.1265678
C          -2.6074235     0.1232231    -0.6207880
H          -3.4686414     0.6705954    -0.2454539
26
029_C12H13N_2-0-21-19 (105,) energy =    -519.8241531
C           0.9536807    -0.7567159     0.5148457
H           0.5832737    -0.6862415     1.5544458
C           1.9119700     0.4201926     0.2972680
C           1.4673371     1.7980651     0.7025060
H           1.1693960     1.8223956     1.7616571
H           0.5990616     2.1391550     0.1243848
H           2.2684195     2.5325208     0.5645621
C           3.1266162     0.2273417    -0.2457285
H           3.8096819     1.0526616    -0.4253449
N           3.6135294    -1.0261094    -0.6264031
H           4.6120042    -1.1134491    -0.7434248
C           2.9196901    -2.1496673    -0.1881074
H           3.4352777    -3.0955494    -0.3229369
C           1.6960359    -2.0659335     0.3549031
H           1.1945107    -2.9777765     0.6653158
C          -2.6821411    -0.5242763    -1.8858074
H          -3.5928555    -0.4698285    -2.4766122
C          -1.6568493    -1.3973613    -2.2499142
H          -1.7667784    -2.0310569    -3.1267265
C          -0.4882323    -1.4679352    -1.4885228
H           0.3064763    -2.1501400    -1.7770334
C          -0.3140793    -0.6612549    -0.3580419
C          -1.3661685     0.1893125     0.0138666
H          -1.2777857     0.7848992     0.9197882
C          -2.5334191     0.2684617    -0.7458417
H          -3.3325249     0.9391236    -0.4394314
26
029_C12H13N_2-0-21-19 (120,) energy =    -519.8211938
C           0.9574886    -0.7576859     0.4863084
H           0.5630555    -0.7457544     1.5192605
C           1.9046524     0.4434506     0.3607251
C           1.4847829     1.7859152     0.8954150
H           1.1255083     1.7052427     1.9319084
H           0.6710662     2.2349080     0.3121861
H           2.3213221     2.4934747     0.8877472
C           3.1092690     0.2991756    -0.2196462
H           3.7890252     1.1379525    -0.3398301
N           3.5954950    -0.9201146    -0.7004341
H           4.5903582    -0.9822811    -0.8578416
C           2.9436553    -2.0777814    -0.2866627
H           3.4835241    -3.0038547    -0.4585061
C           1.7336581    -2.0418937     0.2907089
H           1.2708922    -2.9740969     0.6002970
C          -2.7055175    -0.5655523    -1.8920065
H          -3.6256523    -0.5259631    -2.4692069
C          -1.7646720    -1.5663002    -2.1297897
H          -1.9491713    -2.3180889    -2.8935145
C          -0.5837900    -1.6150038    -1.3848494
H           0.1457583    -2.3941227    -1.5851450
C          -0.3041047    -0.6570809    -0.4030689
C          -1.2815800     0.3185494    -0.1464608
H          -1.1350278     1.0296406     0.6612390
C          -2.4598467     0.3757650    -0.8901438
H          -3.1948396     1.1476969    -0.6750979
26
029_C12H13N_2-0-21-19 (135,) energy =    -519.8181491
C           0.9202684    -0.7628544     0.5310877
H           0.4993551    -0.7926204     1.5501000
C           1.8516724     0.4537187     0.4565602
C           1.5844323     1.6732694     1.2997629
H           1.4690577     1.3939722     2.3571569
H           0.6707266     2.2120599     1.0200567
H           2.4130154     2.3875600     1.2364375
C           2.9547077     0.3861068    -0.3108703
H           3.6299716     1.2282646    -0.4318238
N           3.3528565    -0.7903565    -0.9534807
H           4.2862066    -0.8042801    -1.3360030
C           2.8576491    -1.9877586    -0.4420071
H           3.4371988    -2.8750182    -0.6774547
C           1.7543557    -2.0117363     0.3215217
H           1.4216368    -2.9525226     0.7483022
C          -2.6285512    -0.6133503    -2.0308958
H          -3.5182228    -0.5824191    -2.6545249
C          -1.8337956    -1.7576314    -1.9881774
H          -2.1002809    -2.6295733    -2.5808920
C          -0.6901489    -1.7929666    -1.1871891
H          -0.0736654    -2.6860783    -1.1798686
C          -0.3057452    -0.6892646    -0.4149594
C          -1.1266982     0.4487098    -0.4569938
H          -0.8846126     1.3156996     0.1474653
C          -2.2676965     0.4915798    -1.2580813
H          -2.8786667     1.3909931    -1.2733465
26
029_C12H13N_2-0-21-19 (150,) energy =    -519.8181149
C           0.8828883    -0.8233925     0.5631097
H           0.4703589    -0.9269938     1.5796411
C           1.7722145     0.4204546     0.5384583
C           1.5015351     1.5461032     1.5022495
H           1.6273558     1.2034453     2.5401871
H           0.4790436     1.9385504     1.4335236
H           2.1921239     2.3829074     1.3476043
C           2.8293791     0.4516314    -0.2923948
H           3.4678591     1.3244929    -0.3938063
N           3.2265794    -0.6694185    -1.0273926
H           4.1259640    -0.6210482    -1.4814497
C           2.8191240    -1.9142630    -0.5502282
H           3.4276181    -2.7585945    -0.8589308
C           1.7636400    -2.0268763     0.2710419
H           1.5093054    -2.9972105     0.6843946
C          -2.5948416    -0.6430198    -2.0913674
H          -3.4628331    -0.6032108    -2.7443602
C          -1.9832512    -1.8628240    -1.8015427
H          -2.3703652    -2.7832711    -2.2322258
C          -0.8654194    -1.9093759    -0.9671402
H          -0.3926384    -2.8663036    -0.7688068
C          -0.3364555    -0.7458281    -0.3919557
C          -0.9546492     0.4730480    -0.7032991
H          -0.5542464     1.3999629    -0.3077847
C          -2.0707067     0.5263022    -1.5401051
H          -2.5263877     1.4875798    -1.7655754
26
029_C12H13N_2-0-21-19 (165,) energy =    -519.8197351
C           0.9109801    -0.8672856     0.5362298
H           0.5320059    -1.0649729     1.5523373
C           1.7612946     0.3992605     0.5823735
C           1.3943521     1.4770489     1.5686331
H           1.4880327     1.1070802     2.6004984
H           0.3556420     1.8144835     1.4569683
H           2.0452381     2.3535980     1.4728360
C           2.8377047     0.5150014    -0.2150696
H           3.4420184     1.4169746    -0.2478034
N           3.2903438    -0.5359408    -1.0161908
H           4.2102865    -0.4393128    -1.4185857
C           2.8777721    -1.8212161    -0.6680519
H           3.4912713    -2.6301387    -1.0521441
C           1.8086556    -2.0221831     0.1167087
H           1.5497579    -3.0347998     0.4071822
C          -2.5927732    -0.6414262    -2.0739747
H          -3.4629335    -0.5942467    -2.7235533
C          -2.1374312    -1.8699441    -1.5911488
H          -2.6502807    -2.7883643    -1.8667189
C          -1.0175614    -1.9270512    -0.7623515
H          -0.6740169    -2.8938820    -0.4045930
C          -0.3339921    -0.7630375    -0.3802912
C          -0.7894950     0.4584939    -0.8896311
H          -0.2510267     1.3714608    -0.6577025
C          -1.9098311     0.5218962    -1.7221066
H          -2.2412128     1.4851145    -2.1027650
26
029_C12H13N_2-0-21-19 (180,) energy =    -519.8222120
C           0.9654151    -0.9112985     0.4869804
H           0.6324494    -1.2084741     1.4958727
C           1.7808469     0.3708865     0.6068463
C           1.3108786     1.4109026     1.5894417
H           1.3235068     1.0124774     2.6148206
H           0.2778150     1.7274559     1.3938443
H           1.9457903     2.3039380     1.5725816
C           2.8956586     0.5507870    -0.1226898
H           3.4719407     1.4703059    -0.0744242
N           3.4123744    -0.4282060    -0.9735786
H           4.3689812    -0.3107701    -1.2728792
C           2.9598309    -1.7346192    -0.7903971
H           3.5634926    -2.5063447    -1.2575100
C           1.8577163    -2.0075945    -0.0779238
H           1.5538799    -3.0422989     0.0426174
C          -2.6070344    -0.6407825    -2.0101862
H          -3.4916760    -0.5878542    -2.6394174
C          -2.2799039    -1.8284665    -1.3513886
H          -2.9092181    -2.7075655    -1.4674788
C          -1.1435082    -1.8922118    -0.5468216
H          -0.9036879    -2.8236404    -0.0380754
C          -0.3152411    -0.7737686    -0.3680605
C          -0.6426051     0.4017976    -1.0515430
H           0.0095422     1.2659894    -0.9677411
C          -1.7817795     0.4724880    -1.8579590
H          -2.0171409     1.3999200    -2.3746287
