20
200_C7H10N2S_0-6-11-18 (-165,) energy =    -780.3178616
C          -0.0170216    -1.3456606    -0.2055665
H          -0.0411479    -2.3828395    -0.5287221
C          -1.1927576    -0.6098397    -0.0509731
H          -2.1510811    -1.0692060    -0.2768339
C          -1.1357286     0.7098725     0.4024336
H          -2.0523677     1.2804844     0.5252359
C           1.2066946    -0.7441974     0.0918209
C           0.0955612     1.2961745     0.7058378
H           0.1363699     2.3201901     1.0670060
C           1.2789044     0.5718983     0.5510556
H           2.2464651     0.9972879     0.7905532
S           2.7019600    -1.7579451    -0.1371638
N           2.4585244    -3.2978293     0.0330896
C           2.8931120    -1.6855011    -1.9498338
H           2.3789735    -3.4974304     1.0352589
H           2.0157951    -2.1193531    -2.4315237
H           3.7827867    -2.2689756    -2.1968093
H           3.0222839    -0.6380550    -2.2277460
N           3.7555192    -0.9089248     0.6527524
H           4.6440253    -1.4173288     0.6441106
20
200_C7H10N2S_0-6-11-18 (-150,) energy =    -780.3176625
C           1.2555980     0.5606950     0.2737304
H           2.2476821     0.9782757     0.4222521
C           0.1104921     1.2276811     0.7140780
H           0.2034494     2.1837121     1.2218256
C          -1.1497797     0.6693071     0.4945276
H          -2.0401590     1.1902523     0.8361705
C           1.1205583    -0.6637244    -0.3788349
C          -1.2711562    -0.5537253    -0.1714257
H          -2.2543679    -0.9795610    -0.3521253
C          -0.1343682    -1.2286685    -0.6172465
H          -0.2066103    -2.1626730    -1.1627272
S           2.6512408    -1.4772448    -0.9347268
N           3.9091433    -0.5406716    -0.9106659
C           3.0312983    -2.5296861     0.5068081
H           3.8676223     0.0621216    -1.7384658
H           3.2068958    -1.8989988     1.3795836
H           3.9354222    -3.0912097     0.2613524
H           2.1845471    -3.2001194     0.6641800
N           2.1231569    -2.2505158    -2.1915434
H           2.9156323    -2.7371880    -2.6212601
20
200_C7H10N2S_0-6-11-18 (-135,) energy =    -780.3165033
C           1.2449705     0.6429786     0.1588524
H           2.2249187     1.1067586     0.2298718
C           0.0894187     1.3102397     0.5721853
H           0.1604244     2.3211966     0.9637287
C          -1.1516347     0.6796057     0.4783728
H          -2.0498447     1.1991839     0.8009212
C           1.1398225    -0.6521163    -0.3418646
C          -1.2448191    -0.6167137    -0.0374781
H          -2.2140316    -1.1004723    -0.1225567
C          -0.0982411    -1.2887605    -0.4599270
H          -0.1601583    -2.2771127    -0.9022953
S           2.6742454    -1.4524609    -0.9057057
N           3.9536168    -0.5605725    -0.7390961
C           2.9603064    -2.6518073     0.4399730
H           3.9819511     0.0937533    -1.5271502
H           3.1178807    -2.1105950     1.3742690
H           3.8569020    -3.2173586     0.1772150
H           2.0890143    -3.3062171     0.5018821
N           2.1839254    -2.0683542    -2.2614561
H           2.9814290    -2.5384564    -2.7020492
20
200_C7H10N2S_0-6-11-18 (-120,) energy =    -780.3144722
C           1.2253955     0.7044817     0.0387508
H           2.1868357     1.2099799     0.0271210
C           0.0594070     1.3716185     0.4208029
H           0.1030725     2.4230317     0.6908323
C          -1.1562394     0.6878882     0.4554448
H          -2.0623673     1.2067512     0.7560100
C           1.1588549    -0.6432272    -0.3029434
C          -1.2132098    -0.6624291     0.0977942
H          -2.1626968    -1.1904373     0.1122331
C          -0.0557354    -1.3332580    -0.2956559
H          -0.1020570    -2.3678675    -0.6196514
S           2.6968814    -1.4332273    -0.8732340
N           3.9939034    -0.6053873    -0.5694196
C           2.8902308    -2.7639097     0.3614412
H           4.0908074     0.1012665    -1.3047726
H           3.0230685    -2.3161299     1.3476521
H           3.7830235    -3.3264745     0.0807364
H           2.0036067    -3.3991492     0.3297033
N           2.2546038    -1.8853187    -2.3079296
H           3.0629774    -2.3241816    -2.7621231
20
200_C7H10N2S_0-6-11-18 (-105,) energy =    -780.3119784
C           1.1982250     0.7379599    -0.0969261
H           2.1355986     1.2744127    -0.2116133
C           0.0275415     1.4097521     0.2575061
H           0.0448137     2.4870732     0.3963395
C          -1.1595288     0.6977033     0.4353893
H          -2.0697743     1.2202421     0.7161980
C           1.1708674    -0.6438664    -0.2694882
C          -1.1803991    -0.6864711     0.2481569
H          -2.1064301    -1.2403528     0.3751665
C          -0.0164361    -1.3628671    -0.1182490
H          -0.0466239    -2.4314411    -0.3040936
S           2.7149625    -1.4306803    -0.8337840
N           4.0214329    -0.6854429    -0.3899437
C           2.8153097    -2.8795454     0.2729198
H           4.1809759     0.0846725    -1.0460618
H           2.8706757    -2.5358466     1.3070978
H           3.7328458    -3.4058924     0.0031185
H           1.9441453    -3.5151287     0.1097151
N           2.3386717    -1.7179623    -2.3281622
H           3.1645927    -2.1181358    -2.7871438
20
200_C7H10N2S_0-6-11-18 (-90,) energy =    -780.3098665
C           1.1558465     0.7535657    -0.2738339
H           2.0525791     1.3084009    -0.5337236
C          -0.0126840     1.4273520     0.0774228
H          -0.0298173     2.5135471     0.0747622
C          -1.1546653     0.7074017     0.4352111
H          -2.0638218     1.2327666     0.7139670
C           1.1768420    -0.6412932    -0.2697697
C          -1.1277826    -0.6875719     0.4336341
H          -2.0162493    -1.2508890     0.7051064
C           0.0367682    -1.3690137     0.0729684
H           0.0369070    -2.4531453     0.0506682
S           2.7375029    -1.4236076    -0.7999051
N           4.0312625    -0.7792003    -0.1922699
C           2.7313122    -2.9841883     0.1477880
H           4.2421728     0.0716013    -0.7219950
H           2.6428919    -2.7680118     1.2137211
H           3.6941894    -3.4543974    -0.0590003
H           1.9144886    -3.6146790    -0.2050669
N           2.4625364    -1.5492256    -2.3374368
H           3.3178134    -1.9038274    -2.7798507
20
200_C7H10N2S_0-6-11-18 (-75,) energy =    -780.3093399
C           1.0822264     0.7491836    -0.4695230
H           1.9140612     1.2939117    -0.9060274
C          -0.0795570     1.4239568    -0.1028046
H          -0.1466256     2.4985358    -0.2477129
C          -1.1539133     0.7214736     0.4494979
H          -2.0586321     1.2493541     0.7375701
C           1.1667833    -0.6346807    -0.2919667
C          -1.0619970    -0.6576081     0.6306903
H          -1.8949381    -1.2099636     1.0567448
C           0.1000143    -1.3418640     0.2630145
H           0.1508899    -2.4149761     0.4056135
S           2.7589281    -1.3997406    -0.7494493
N           4.0021833    -0.8744394     0.0486772
C           2.6420762    -3.0628899    -0.0105854
H           4.2491045     0.0514436    -0.3136539
H           2.4863475    -2.9907533     1.0668680
H           3.6073035    -3.5301733    -0.2132724
H           1.8406525    -3.6145504    -0.5037444
N           2.6282898    -1.3591547    -2.3102798
H           3.5248680    -1.6610594    -2.7072100
20
200_C7H10N2S_0-6-11-18 (-60,) energy =    -780.3105210
C           1.0083207     0.6951212    -0.6608765
H           1.7720222     1.1874645    -1.2542371
C          -0.1466338     1.3772718    -0.2854953
H          -0.2706368     2.4190675    -0.5677195
C          -1.1426009     0.7249599     0.4461475
H          -2.0430159     1.2584879     0.7374691
C           1.1625187    -0.6508402    -0.3123226
C          -0.9774407    -0.6126000     0.8026640
H          -1.7479802    -1.1260967     1.3709760
C           0.1805755    -1.3031378     0.4351327
H           0.2940946    -2.3398499     0.7297132
S           2.7777150    -1.4036706    -0.7023673
N           3.9541225    -1.0096880     0.2567269
C           2.5663105    -3.1386925    -0.1884378
H           4.2337080    -0.0473275     0.0432083
H           2.4253335    -3.2090766     0.8907854
H           3.5007497    -3.6294602    -0.4671213
H           1.7306468    -3.5687560    -0.7425479
N           2.7889464    -1.2032344    -2.2570568
H           3.7201108    -1.4646456    -2.5980619
20
200_C7H10N2S_0-6-11-18 (-45,) energy =    -780.3122895
C           0.9348517     0.6421384    -0.8058611
H           1.6390463     1.0768250    -1.5067373
C          -0.2261927     1.3199530    -0.4370860
H          -0.4184292     2.3117234    -0.8370520
C          -1.1406645     0.7273189     0.4366695
H          -2.0457190     1.2572331     0.7203768
C           1.1722466    -0.6415150    -0.3049990
C          -0.8880276    -0.5459213     0.9479379
H          -1.5937688    -1.0105351     1.6308842
C           0.2763297    -1.2290681     0.5913600
H           0.4682381    -2.2087827     1.0143527
S           2.7975806    -1.3921734    -0.6549216
N           3.9050973    -1.1419751     0.4265100
C           2.5021002    -3.1656184    -0.3615493
H           4.2170056    -0.1691276     0.3470542
H           2.3480822    -3.3673337     0.6987833
H           3.4133294    -3.6645302    -0.6976867
H           1.6505767    -3.4781123    -0.9680832
N           2.9331139    -1.0381472    -2.1764817
H           3.8850591    -1.2814466    -2.4676758
20
200_C7H10N2S_0-6-11-18 (-30,) energy =    -780.3141258
C           0.8558708     0.5873824    -0.9198328
H           1.5082982     0.9636623    -1.6995400
C          -0.3218809     1.2480691    -0.5686873
H          -0.5875699     2.1734504    -1.0723737
C          -1.1559776     0.7247130     0.4211511
H          -2.0728959     1.2420095     0.6899605
C           1.1845030    -0.6107803    -0.2815416
C          -0.8071379    -0.4603637     1.0717891
H          -1.4475755    -0.8663135     1.8498449
C           0.3729945    -1.1235198     0.7342080
H           0.6534381    -2.0247631     1.2692580
S           2.8168768    -1.3613713    -0.5988470
N           3.8427418    -1.2561340     0.5819916
C           2.4496662    -3.1438323    -0.5148029
H           4.1774354    -0.2887850     0.6311247
H           2.1898552    -3.4447882     0.5001909
H           3.3702769    -3.6462928    -0.8189851
H           1.6448465    -3.3558634    -1.2204480
N           3.0716966    -0.8671632    -2.0649191
H           4.0350327    -1.1115859    -2.3115369
20
200_C7H10N2S_0-6-11-18 (-15,) energy =    -780.3159033
C           0.8040701     0.4982613    -1.0086934
H           1.4072991     0.8140792    -1.8519838
C          -0.3874715     1.1422746    -0.6699774
H          -0.7233320     1.9917784    -1.2583521
C          -1.1437649     0.7007999     0.4173414
H          -2.0707746     1.2053642     0.6758582
C           1.2205229    -0.5993810    -0.2541569
C          -0.7038079    -0.3824663     1.1818011
H          -1.2823330    -0.7183130     2.0378479
C           0.4894428    -1.0273952     0.8573552
H           0.8557792    -1.8395784     1.4780388
S           2.8447185    -1.3679637    -0.5632992
N           3.7959811    -1.4142024     0.6819225
C           2.3999054    -3.1318666    -0.6654174
H           4.1536091    -0.4682073     0.8478517
H           1.9967837    -3.4865191     0.2834866
H           3.3250431    -3.6650534    -0.8946078
H           1.6767375    -3.2442986    -1.4748262
N           3.1999901    -0.7483704    -1.9583148
H           4.1620880    -1.0152421    -2.1831902
20
200_C7H10N2S_0-6-11-18 (0,) energy =    -780.3172242
C           0.7260296     0.4219030    -1.0670083
H           1.2893037     0.6806524    -1.9559391
C          -0.4839865     1.0427750    -0.7504086
H          -0.8820752     1.8095373    -1.4094139
C          -1.1787498     0.6851979     0.4069652
H          -2.1199719     1.1724698     0.6467958
C           1.2223083    -0.5631353    -0.2126538
C          -0.6608006    -0.2890726     1.2638841
H          -1.1930532    -0.5565538     2.1724646
C           0.5509672    -0.9104945     0.9619599
H           0.9863090    -1.6371816     1.6422115
S           2.8362630    -1.3528064    -0.5146078
N           3.7090924    -1.5438529     0.7737739
C           2.3318007    -3.0825478    -0.7912543
H           4.0950174    -0.6314291     1.0364821
H           1.8432880    -3.4802427     0.0990723
H           3.2452289    -3.6447860    -0.9971624
H           1.6621561    -3.0974310    -1.6528289
N           3.2866794    -0.6152296    -1.8213942
H           4.2388353    -0.9181150    -2.0427755
20
200_C7H10N2S_0-6-11-18 (15,) energy =    -780.3178827
C           0.6728163     0.3209495    -1.1093725
H           1.1964991     0.5132202    -2.0384990
C          -0.5506046     0.9242262    -0.8129124
H          -1.0038094     1.5994173    -1.5336239
C          -1.1878178     0.6678084     0.4037750
H          -2.1398798     1.1416568     0.6272954
C           1.2426268    -0.5403726    -0.1703444
C          -0.6004502    -0.1883899     1.3377489
H          -1.0897271    -0.3782060     2.2890621
C           0.6246294    -0.7941658     1.0549131
H           1.1138540    -1.4396215     1.7793222
S           2.8436046    -1.3544776    -0.4705839
N           3.6420728    -1.6870273     0.8375618
C           2.2975479    -3.0353922    -0.9215355
H           4.0599432    -0.8173648     1.1833003
H           1.7595190    -3.4848816    -0.0857910
H           3.1987318    -3.6124095    -1.1404657
H           1.6623171    -2.9519417    -1.8050684
N           3.3804399    -0.5089088    -1.6754367
H           4.3197243    -0.8448082    -1.9056359
20
200_C7H10N2S_0-6-11-18 (30,) energy =    -780.3176750
C           0.6191195     0.1995506    -1.1421213
H           1.0980818     0.3140139    -2.1079072
C          -0.6120556     0.7935728    -0.8626754
H          -1.1187066     1.3683102    -1.6331731
C          -1.1894338     0.6577684     0.4031095
H          -2.1479319     1.1245064     0.6135884
C           1.2595598    -0.5274002    -0.1361167
C          -0.5368067    -0.0713053     1.3986164
H          -0.9828734    -0.1711047     2.3842508
C           0.6949761    -0.6719014     1.1301857
H           1.2273610    -1.2396343     1.8884275
S           2.8487914    -1.3637212    -0.4329313
N           3.5704368    -1.8334663     0.8781095
C           2.2792199    -2.9807147    -1.0592092
H           4.0215099    -1.0150052     1.2988177
H           1.6901420    -3.4809736    -0.2891401
H           3.1730075    -3.5654795    -1.2874747
H           1.6876785    -2.8012816    -1.9586895
N           3.4700027    -0.4205104    -1.5195813
H           4.4005222    -0.7774983    -1.7565269
20
200_C7H10N2S_0-6-11-18 (45,) energy =    -780.3165555
C           0.5535332     0.0665597    -1.1537369
H           0.9824968     0.0894343    -2.1498129
C          -0.6811663     0.6575316    -0.8869857
H          -1.2393331     1.1241202    -1.6940623
C          -1.1964320     0.6567598     0.4129080
H          -2.1583335     1.1206048     0.6138474
C           1.2634940    -0.5180033    -0.1019054
C          -0.4801292     0.0609536     1.4516258
H          -0.8811313     0.0591778     2.4613682
C           0.7535862    -0.5413933     1.1938164
H           1.3226455    -1.0309081     1.9792931
S           2.8445095    -1.3716613    -0.3886986
N           3.4847469    -1.9769291     0.9088401
C           2.2691058    -2.9084889    -1.1887844
H           3.9631933    -1.2177491     1.4035343
H           1.6361234    -3.4602238    -0.4920389
H           3.1598264    -3.4922797    -1.4308436
H           1.7216484    -2.6358672    -2.0926531
N           3.5491032    -0.3422541    -1.3382611
H           4.4805249    -0.7053902    -1.5653807
20
200_C7H10N2S_0-6-11-18 (60,) energy =    -780.3145027
C           0.4823412    -0.0838301    -1.1598563
H           0.8478404    -0.1679981    -2.1782821
C          -0.7476628     0.5184608    -0.8967612
H          -1.3594381     0.8758444    -1.7205043
C          -1.1905376     0.6664931     0.4209022
H          -2.1494158     1.1372541     0.6197675
C           1.2642055    -0.5265564    -0.0900445
C          -0.4076132     0.2047562     1.4794607
H          -0.7547706     0.3121090     2.5033143
C           0.8196063    -0.4111706     1.2241490
H           1.4266529    -0.8153265     2.0290932
S           2.8402547    -1.3968498    -0.3612090
N           3.3918710    -2.1349358     0.9079867
C           2.2820895    -2.8413831    -1.3293320
H           3.8819811    -1.4421488     1.4820173
H           1.5949589    -3.4324412    -0.7218112
H           3.1752699    -3.4248508    -1.5618879
H           1.8004433    -2.4849312    -2.2410343
N           3.6279458    -0.2976588    -1.1546237
H           4.5667807    -0.6610802    -1.3514389
20
200_C7H10N2S_0-6-11-18 (75,) energy =    -780.3119285
C           0.3893208    -0.2255634    -1.1382659
H           0.6806524    -0.4302161    -2.1632526
C          -0.8315559     0.3958422    -0.8727464
H          -1.4977421     0.6443650    -1.6942651
C          -1.1949011     0.6994441     0.4413009
H          -2.1466942     1.1831164     0.6427292
C           1.2445952    -0.5311182    -0.0775366
C          -0.3405987     0.3730774     1.4956496
H          -0.6252078     0.5979233     2.5196931
C           0.8755516    -0.2609751     1.2384020
H           1.5286305    -0.5627676     2.0518119
S           2.8249503    -1.4073367    -0.3221342
N           3.2777890    -2.2772690     0.9014305
C           2.3306184    -2.7471888    -1.4608202
H           3.7343483    -1.6556788     1.5754917
H           1.5637617    -3.3592123    -0.9834125
H           3.2295177    -3.3413576    -1.6357443
H           1.9699481    -2.3099026    -2.3924110
N           3.6858956    -0.2501231    -0.9361205
H           4.6381887    -0.6058801    -1.0755222
20
200_C7H10N2S_0-6-11-18 (90,) energy =    -780.3098847
C           0.2821637    -0.4017312    -1.0964891
H           0.4881832    -0.7455974    -2.1040237
C          -0.9240403     0.2477521    -0.8242993
H          -1.6502568     0.3848354    -1.6206831
C          -1.1941676     0.7205108     0.4602218
H          -2.1337162     1.2250184     0.6675400
C           1.2158864    -0.5699306    -0.0731806
C          -0.2584672     0.5383678     1.4808708
H          -0.4676639     0.8984878     2.4842058
C           0.9425406    -0.1184569     1.2183216
H           1.6602060    -0.2884290     2.0154703
S           2.8020181    -1.4433626    -0.3014938
N           3.1651842    -2.4468324     0.8470427
C           2.3952244    -2.6520261    -1.6084465
H           3.5408103    -1.9086862     1.6333845
H           1.5491049    -3.2652251    -1.2942996
H           3.2860997    -3.2728270    -1.7176439
H           2.1847279    -2.1188309    -2.5361513
N           3.7104915    -0.2415248    -0.7325881
H           4.6728477    -0.5885892    -0.8122144
20
200_C7H10N2S_0-6-11-18 (105,) energy =    -780.3092987
C           0.1876417    -0.5772549    -1.0245809
H           0.3213070    -1.0575574    -1.9869227
C          -1.0052473     0.1005143    -0.7578517
H          -1.7832358     0.1316297    -1.5155852
C          -1.1944067     0.7364127     0.4682044
H          -2.1233168     1.2619587     0.6709639
C           1.1884149    -0.6133407    -0.0534497
C          -0.1867716     0.6968740     1.4355387
H          -0.3275489     1.1931012     2.3916325
C           1.0032025     0.0205102     1.1780600
H           1.7884650    -0.0064347     1.9276921
S           2.7712379    -1.4963934    -0.2647979
N           3.0436917    -2.6289244     0.7849318
C           2.4604358    -2.5452195    -1.7244491
H           3.3196353    -2.1888574     1.6678992
H           1.6012185    -3.1943574    -1.5487465
H           3.3626656    -3.1488171    -1.8367340
H           2.3176092    -1.9063526    -2.5969003
N           3.7203923    -0.2744994    -0.5119220
H           4.6835791    -0.6270113    -0.5382255
20
200_C7H10N2S_0-6-11-18 (120,) energy =    -780.3100956
C           0.1268510    -0.7492813    -0.9232343
H           0.2054101    -1.3557516    -1.8178130
C          -1.0580273    -0.0509583    -0.6740124
H          -1.8792366    -0.1227479    -1.3817250
C          -1.1843007     0.7355064     0.4698649
H          -2.1075879     1.2758265     0.6591196
C           1.1839871    -0.6530128    -0.0177000
C          -0.1186773     0.8320289     1.3689103
H          -0.2072386     1.4520590     2.2566281
C           1.0669615     0.1427459     1.1263857
H           1.9086104     0.2415301     1.8044456
S           2.7535899    -1.5644988    -0.2051728
N           2.9314099    -2.8038649     0.7395715
C           2.5365922    -2.4488102    -1.7836768
H           3.1278080    -2.4608934     1.6848977
H           1.7080376    -3.1554191    -1.7191096
H           3.4709358    -2.9938025    -1.9299721
H           2.3927022    -1.7174552    -2.5801997
N           3.7463817    -0.3540442    -0.2804317
H           4.6996510    -0.7320705    -0.2584906
20
200_C7H10N2S_0-6-11-18 (135,) energy =    -780.3115888
C           0.0690155    -0.8803494    -0.8212296
H           0.1023662    -1.5960635    -1.6345632
C          -1.1104277    -0.1703849    -0.5839763
H          -1.9726592    -0.3361611    -1.2238671
C          -1.1802713     0.7466562     0.4643528
H          -2.1001801     1.2955250     0.6456043
C           1.1791978    -0.6614903    -0.0034611
C          -0.0635375     0.9625705     1.2756874
H          -0.1090310     1.6848096     2.0861122
C           1.1199885     0.2648945     1.0421733
H           2.0060530     0.4548254     1.6379849
S           2.7284329    -1.6079245    -0.1886432
N           2.8112051    -2.9441645     0.6284230
C           2.5890593    -2.3072752    -1.8649732
H           2.9473526    -2.7079830     1.6161696
H           1.7965486    -3.0548433    -1.9117062
H           3.5522979    -2.7867427    -2.0502166
H           2.4280986    -1.4906443    -2.5703676
N           3.7652665    -0.4357861    -0.0931390
H           4.6999526    -0.8535272    -0.0414585
20
200_C7H10N2S_0-6-11-18 (150,) energy =    -780.3133434
C           0.0490341    -1.0357147    -0.6788473
H           0.0549272    -1.8626849    -1.3805555
C          -1.1315914    -0.3213478    -0.4684479
H          -2.0258098    -0.5876528    -1.0250436
C          -1.1627996     0.7276808     0.4515271
H          -2.0837760     1.2808686     0.6137574
C           1.1991523    -0.6871478     0.0329729
C          -0.0081693     1.0676051     1.1597682
H          -0.0269694     1.8892534     1.8705003
C           1.1791141     0.3660957     0.9505051
H           2.0950938     0.6384214     1.4621998
S           2.7370374    -1.6537899    -0.1517157
N           2.7349264    -3.0685724     0.5250324
C           2.6784543    -2.1663675    -1.8993326
H           2.8161989    -2.9390118     1.5383313
H           1.8901085    -2.9002545    -2.0674843
H           3.6495299    -2.6257815    -2.0952659
H           2.5454223    -1.2743354    -2.5133166
N           3.7988536    -0.5306909     0.1131595
H           4.7166853    -0.9816900     0.1727082
20
200_C7H10N2S_0-6-11-18 (165,) energy =    -780.3152729
C           0.0081597    -1.1613183    -0.5231477
H          -0.0077309    -2.0856681    -1.0920550
C          -1.1692933    -0.4357606    -0.3412648
H          -2.0919547    -0.7844086    -0.7967292
C          -1.1613833     0.7304670     0.4272032
H          -2.0802754     1.2928396     0.5689324
C           1.1913761    -0.7065399     0.0645200
C           0.0260124     1.1732885     1.0131506
H           0.0336091     2.0820941     1.6086861
C           1.2118910     0.4598536     0.8305027
H           2.1526376     0.7939272     1.2524419
S           2.7120027    -1.6933614    -0.1399643
N           2.6159014    -3.1744838     0.3649969
C           2.7250434    -1.9919644    -1.9375735
H           2.6300324    -3.1663679     1.3896819
H           1.8849709    -2.6183128    -2.2377411
H           3.6625990    -2.5123160    -2.1448545
H           2.7033778    -1.0219616    -2.4367869
N           3.7943059    -0.6493344     0.3023501
H           4.6934429    -1.1357853     0.3537130
20
200_C7H10N2S_0-6-11-18 (180,) energy =    -780.3169890
C           0.0178832    -1.2684622    -0.3596711
H          -0.0021869    -2.2626570    -0.7971871
C          -1.1610788    -0.5408848    -0.1973302
H          -2.1040201    -0.9574930    -0.5403375
C          -1.1281101     0.7155005     0.4127046
H          -2.0479775     1.2796023     0.5410243
C           1.2238752    -0.7240837     0.0877854
C           0.0832143     1.2454815     0.8619571
H           0.1069280     2.2212527     1.3394428
C           1.2708671     0.5295705     0.6979847
H           2.2268843     0.9174153     1.0296989
S           2.7311069    -1.7225842    -0.1372880
N           2.5542745    -3.2445449     0.1955260
C           2.8156458    -1.8237245    -1.9555972
H           2.5176888    -3.3472474     1.2146253
H           1.9352230    -2.3318492    -2.3502292
H           3.7136388    -2.3990416    -2.1911623
H           2.8937221    -0.8052614    -2.3396431
N           3.8115447    -0.7707831     0.4803930
H           4.7022826    -1.2742773     0.4977649
