17
222_C7H8OS_4-6-11-16 (-165,) energy =    -744.9211550
C           7.2359028    -2.1719750    -1.5801003
H           8.1699952    -2.0608428    -2.1238352
C           6.1817875    -2.8944512    -2.1459450
H           6.2940055    -3.3420101    -3.1297977
C           4.9801606    -3.0420660    -1.4524326
H           4.1696216    -3.6168926    -1.8931431
C           4.8452793    -2.4610324    -0.1886966
C           5.8881633    -1.7340023     0.3822014
H           5.7373005    -1.2788103     1.3565642
C           7.0880741    -1.5935215    -0.3185517
H           7.9055078    -1.0277464     0.1203316
S           3.3204887    -2.6294800     0.8086598
C           2.1527210    -1.9667204    -0.4491945
H           2.1410033    -2.6035578    -1.3371632
H           2.4515417    -0.9464985    -0.7021362
H           1.1650373    -1.9632397     0.0188788
O           3.3955351    -1.5883641     1.9053971
17
222_C7H8OS_4-6-11-16 (-150,) energy =    -744.9189759
C           7.2711709    -2.1923669    -1.5758801
H           8.2089849    -2.1153179    -2.1190318
C           6.1642473    -2.7951823    -2.1772095
H           6.2370085    -3.1829514    -3.1897663
C           4.9551838    -2.8951820    -1.4864831
H           4.1061947    -3.3736827    -1.9650621
C           4.8645910    -2.3938282    -0.1848454
C           5.9629147    -1.7773181     0.4170164
H           5.8538776    -1.3570166     1.4121152
C           7.1681021    -1.6832003    -0.2802851
H           8.0239697    -1.2035898     0.1868444
S           3.3512190    -2.4828887     0.8430533
C           2.1226305    -2.1026158    -0.4710566
H           2.0627235    -2.9188651    -1.1952541
H           2.3882619    -1.1607452    -0.9567676
H           1.1644638    -2.0010458     0.0445328
O           3.3751449    -1.2793053     1.7617587
17
222_C7H8OS_4-6-11-16 (-135,) energy =    -744.9168690
C           7.2853617    -2.2130682    -1.5561024
H           8.2257158    -2.1849775    -2.0995532
C           6.1320993    -2.6856660    -2.1833614
H           6.1696877    -3.0206052    -3.2165168
C           4.9178380    -2.7211994    -1.4933794
H           4.0327118    -3.0912322    -1.9997086
C           4.8667994    -2.2921084    -0.1642513
C           6.0175022    -1.8024915     0.4617459
H           5.9539070    -1.4265788     1.4785461
C           7.2254552    -1.7684827    -0.2335374
H           8.1175412    -1.3864545     0.2551898
S           3.3680411    -2.2938071     0.8896144
C           2.0938483    -2.2230730    -0.4314225
H           2.0485567    -3.1704490    -0.9753586
H           2.2946320    -1.3858234    -1.1041805
H           1.1493689    -2.0605473     0.0931803
O           3.3225430    -0.9623711     1.6089391
17
222_C7H8OS_4-6-11-16 (-120,) energy =    -744.9153427
C           7.2873258    -2.2444828    -1.5352645
H           8.2332847    -2.2660212    -2.0692359
C           6.1068764    -2.5940818    -2.1904435
H           6.1295800    -2.8835197    -3.2376657
C           4.8859317    -2.5647007    -1.5108447
H           3.9804849    -2.8341372    -2.0431975
C           4.8523257    -2.1974617    -0.1631477
C           6.0355758    -1.8351796     0.4915232
H           6.0001383    -1.5155316     1.5294004
C           7.2491323    -1.8608360    -0.1926499
H           8.1637326    -1.5776557     0.3209358
S           3.3559963    -2.1037869     0.8909330
C           2.0694953    -2.3426796    -0.3945791
H           2.1212945    -3.3531789    -0.8091633
H           2.1677279    -1.5838127    -1.1749990
H           1.1186053    -2.2096455     0.1265369
O           3.2216375    -0.6809341     1.3891573
17
222_C7H8OS_4-6-11-16 (-105,) energy =    -744.9147111
C           7.3081721    -2.2905063    -1.5330489
H           8.2548938    -2.3719849    -2.0598721
C           6.1100940    -2.5121485    -2.2123924
H           6.1206204    -2.7628473    -3.2697489
C           4.8888180    -2.4060458    -1.5420616
H           3.9695690    -2.5729986    -2.0925693
C           4.8692334    -2.0894848    -0.1811635
C           6.0723481    -1.8656934     0.4992080
H           6.0562479    -1.6079441     1.5552370
C           7.2878440    -1.9632656    -0.1754011
H           8.2174867    -1.7868141     0.3584418
S           3.3744969    -1.8938158     0.8616505
C           2.0979667    -2.4370167    -0.3363046
H           2.2676431    -3.4753532    -0.6342686
H           2.0815644    -1.7695725    -1.2018664
H           1.1481023    -2.3556193     0.1971246
O           3.1416027    -0.4214024     1.1228340
17
222_C7H8OS_4-6-11-16 (-90,) energy =    -744.9151393
C           7.3172306    -2.3360106    -1.5252486
H           8.2646535    -2.4693385    -2.0401575
C           6.1188426    -2.4257071    -2.2358838
H           6.1323363    -2.6269377    -3.3037065
C           4.8977932    -2.2535255    -1.5813904
H           3.9773039    -2.3149191    -2.1521475
C           4.8767051    -1.9996627    -0.2069216
C           6.0782665    -1.9145108     0.5049552
H           6.0586524    -1.7213377     1.5747875
C           7.2968026    -2.0768888    -0.1536888
H           8.2266663    -2.0073451     0.4038706
S           3.3753230    -1.7272058     0.8064049
C           2.1423238    -2.5526055    -0.2707961
H           2.4267935    -3.5940323    -0.4442476
H           2.0344779    -2.0075704    -1.2121944
H           1.1966561    -2.5088509     0.2745872
O           3.0330409    -0.2533105     0.8347218
17
222_C7H8OS_4-6-11-16 (-75,) energy =    -744.9163357
C           7.3025118    -2.3716405    -1.5168999
H           8.2475794    -2.5537175    -2.0211783
C           6.1165805    -2.3254878    -2.2545646
H           6.1393081    -2.4700733    -3.3313519
C           4.8998344    -2.0919450    -1.6136151
H           3.9872795    -2.0424161    -2.1993413
C           4.8707475    -1.9091931    -0.2276720
C           6.0566912    -1.9561081     0.5107056
H           6.0255854    -1.8169152     1.5885001
C           7.2733058    -2.1840970    -0.1345219
H           8.1936834    -2.2186520     0.4417558
S           3.3597839    -1.5705241     0.7467682
C           2.1947882    -2.6432876    -0.1796718
H           2.5600706    -3.6739693    -0.1833746
H           2.0594634    -2.2703080    -1.1980802
H           1.2413206    -2.5836565     0.3507828
O           2.9189648    -0.1375542     0.5425569
17
222_C7H8OS_4-6-11-16 (-60,) energy =    -744.9179667
C           7.2784036    -2.4091763    -1.5167769
H           8.2171053    -2.6393704    -2.0132608
C           6.1167347    -2.2245029    -2.2730948
H           6.1538576    -2.3096696    -3.3557986
C           4.9095269    -1.9296950    -1.6414187
H           4.0136341    -1.7628691    -2.2325674
C           4.8680031    -1.8210452    -0.2479856
C           6.0272688    -1.9979617     0.5096307
H           5.9832692    -1.9058795     1.5919191
C           7.2350074    -2.2934117    -0.1273078
H           8.1379185    -2.4311255     0.4611232
S           3.3420176    -1.4234804     0.6736804
C           2.2668052    -2.7103616    -0.0755820
H           2.6927888    -3.6988194     0.1182769
H           2.1579100    -2.5384182    -1.1494607
H           1.2902421    -2.6191409     0.4066483
O           2.8179942    -0.0753923     0.2308297
17
222_C7H8OS_4-6-11-16 (-45,) energy =    -744.9197216
C           7.2531195    -2.4360392    -1.5198704
H           8.1880034    -2.7047234    -2.0040795
C           6.1305552    -2.1278684    -2.2957773
H           6.1947992    -2.1553994    -3.3802183
C           4.9292790    -1.7822090    -1.6797436
H           4.0590836    -1.5081935    -2.2703315
C           4.8601078    -1.7457597    -0.2846222
C           5.9778514    -2.0402803     0.4959888
H           5.9114969    -1.9947077     1.5802476
C           7.1787621    -2.3903011    -0.1273369
H           8.0538736    -2.6203229     0.4742067
S           3.3078358    -1.2974259     0.5618178
C           2.3363110    -2.7606640     0.0192798
H           2.8046262    -3.6716215     0.4030394
H           2.2811666    -2.7849798    -1.0722505
H           1.3326638    -2.6467786     0.4372599
O           2.7171856    -0.0855400    -0.1242802
17
222_C7H8OS_4-6-11-16 (-30,) energy =    -744.9212964
C           7.2355852    -2.4483372    -1.5230392
H           8.1716554    -2.7409730    -1.9908176
C           6.1627495    -2.0264211    -2.3147180
H           6.2659682    -1.9904130    -3.3959428
C           4.9610847    -1.6466456    -1.7182677
H           4.1238656    -1.2828749    -2.3080711
C           4.8455898    -1.6945620    -0.3282920
C           5.9130191    -2.0998262     0.4724892
H           5.8128907    -2.1117172     1.5553753
C           7.1125965    -2.4829342    -0.1327650
H           7.9513669    -2.7989962     0.4814244
S           3.2720992    -1.2025765     0.4527932
C           2.3909767    -2.7888791     0.1503417
H           2.9068920    -3.6006831     0.6711037
H           2.3544069    -2.9803325    -0.9254462
H           1.3774518    -2.6712407     0.5429913
O           2.6232988    -0.1604620    -0.4317007
17
222_C7H8OS_4-6-11-16 (-15,) energy =    -744.9223054
C           7.2365647    -2.4455976    -1.5272234
H           8.1818639    -2.7457907    -1.9710359
C           6.2209515    -1.9258257    -2.3340404
H           6.3765647    -1.8216584    -3.4045403
C           5.0072476    -1.5344556    -1.7671517
H           4.2061512    -1.1041983    -2.3620445
C           4.8248413    -1.6737827    -0.3925353
C           5.8362203    -2.1755555     0.4275637
H           5.6878297    -2.2544152     1.5024198
C           7.0456343    -2.5687250    -0.1486046
H           7.8407563    -2.9618447     0.4790809
S           3.2357588    -1.1394127     0.3309036
C           2.4338346    -2.7954452     0.2921880
H           2.9942567    -3.4910590     0.9232744
H           2.4004164    -3.1495231    -0.7415126
H           1.4188424    -2.6687350     0.6781500
O           2.5335155    -0.2853218    -0.7022962
17
222_C7H8OS_4-6-11-16 (0,) energy =    -744.9225169
C           7.2502381    -2.4230089    -1.5283824
H           8.2127287    -2.7122598    -1.9413573
C           6.2901352    -1.8256283    -2.3475102
H           6.5047882    -1.6495184    -3.3981833
C           5.0538653    -1.4477723    -1.8190334
H           4.2885840    -0.9706269    -2.4247804
C           4.7913493    -1.6850864    -0.4721156
C           5.7501048    -2.2618911     0.3636844
H           5.5460207    -2.4133475     1.4215336
C           6.9810583    -2.6394055    -0.1737832
H           7.7324741    -3.0948261     0.4655806
S           3.1905077    -1.1118681     0.1964256
C           2.4549830    -2.7834992     0.4247523
H           3.0561750    -3.3606264     1.1327782
H           2.4100208    -3.2839797    -0.5458743
H           1.4461388    -2.6372788     0.8194939
O           2.4402857    -0.4545569    -0.9417752
17
222_C7H8OS_4-6-11-16 (15,) energy =    -744.9216426
C           7.2725604    -2.3891911    -1.5317633
H           8.2523434    -2.6572132    -1.9173892
C           6.3582209    -1.7222868    -2.3485642
H           6.6248893    -1.4695692    -3.3712687
C           5.0995138    -1.3728121    -1.8542665
H           4.3662657    -0.8552542    -2.4659484
C           4.7619854    -1.7137229    -0.5460776
C           5.6793202    -2.3563891     0.2900394
H           5.4276078    -2.5857063     1.3227422
C           6.9332257    -2.7038694    -0.2126892
H           7.6472815    -3.2154104     0.4270807
S           3.1546757    -1.1086389     0.0781881
C           2.4749631    -2.7464663     0.5700899
H           3.1012497    -3.2026268     1.3411657
H           2.4196593    -3.3835625    -0.3160629
H           1.4720300    -2.5636290     0.9642140
O           2.3530237    -0.6548649    -1.1229510
17
222_C7H8OS_4-6-11-16 (30,) energy =    -744.9196783
C           7.3062849    -2.3587684    -1.5353872
H           8.3068426    -2.6042560    -1.8804519
C           6.4433589    -1.6269776    -2.3527095
H           6.7699353    -1.3000906    -3.3362056
C           5.1585844    -1.3086659    -1.9096135
H           4.4663816    -0.7520343    -2.5343511
C           4.7344343    -1.7468163    -0.6541512
C           5.6027505    -2.4542598     0.1829527
H           5.2951108    -2.7641187     1.1774884
C           6.8852056    -2.7693854    -0.2682936
H           7.5562142    -3.3344196     0.3731102
S           3.1058084    -1.1253900    -0.1022021
C           2.4850129    -2.6811330     0.6586956
H           3.0875240    -2.9570759     1.5276523
H           2.4906274    -3.4741850    -0.0928371
H           1.4599935    -2.4719321     0.9745908
O           2.2693331    -0.9008046    -1.3441115
17
222_C7H8OS_4-6-11-16 (45,) energy =    -744.9173310
C           7.3199881    -2.3329993    -1.5271782
H           8.3355812    -2.5559455    -1.8422273
C           6.5026676    -1.5225641    -2.3179124
H           6.8789936    -1.1128806    -3.2512694
C           5.2000286    -1.2345812    -1.9126282
H           4.5485661    -0.6226698    -2.5296574
C           4.7056705    -1.7749482    -0.7213128
C           5.5258880    -2.5715663     0.0829979
H           5.1663737    -2.9819664     1.0208483
C           6.8301629    -2.8547217    -0.3291209
H           7.4617856    -3.4864362     0.2897057
S           3.0426000    -1.1835622    -0.2409720
C           2.5253333    -2.6095947     0.7976385
H           3.0896537    -2.6329356     1.7334985
H           2.6417566    -3.5414299     0.2390463
H           1.4687839    -2.4357907     1.0150803
O           2.1728031    -1.2158157    -1.4796990
17
222_C7H8OS_4-6-11-16 (60,) energy =    -744.9154505
C           7.3236941    -2.3109491    -1.5029377
H           8.3539673    -2.5147781    -1.7811537
C           6.5534378    -1.4280109    -2.2636884
H           6.9806423    -0.9437034    -3.1374175
C           5.2338874    -1.1637939    -1.9026870
H           4.6268016    -0.4894865    -2.5006097
C           4.6724572    -1.7936245    -0.7853863
C           5.4422486    -2.6736067    -0.0201341
H           5.0310817    -3.1690382     0.8524136
C           6.7671223    -2.9299754    -0.3840267
H           7.3609710    -3.6194685     0.2100357
S           2.9611034    -1.2625685    -0.4064291
C           2.5476380    -2.4913049     0.8924942
H           3.1404699    -2.3156119     1.7941948
H           2.6870819    -3.5066928     0.5127647
H           1.4903800    -2.3255794     1.1121232
O           2.0890743    -1.5810113    -1.6018682
17
222_C7H8OS_4-6-11-16 (75,) energy =    -744.9147093
C           7.3244744    -2.2834308    -1.4902196
H           8.3671192    -2.4575174    -1.7413769
C           6.5802851    -1.3396542    -2.2015176
H           7.0400840    -0.7772706    -3.0093995
C           5.2448857    -1.1143117    -1.8724256
H           4.6650020    -0.3808729    -2.4271528
C           4.6434440    -1.8352468    -0.8337042
C           5.3850133    -2.7874220    -0.1293346
H           4.9380971    -3.3657008     0.6718065
C           6.7261240    -3.0034948    -0.4559975
H           7.3001320    -3.7417794     0.0975283
S           2.8776474    -1.4241882    -0.5634331
C           2.5730179    -2.3918193     0.9632011
H           3.2209140    -2.0452319     1.7729860
H           2.7100579    -3.4589256     0.7695574
H           1.5275198    -2.2060764     1.2198641
O           2.0467880    -2.0516729    -1.6617996
17
222_C7H8OS_4-6-11-16 (90,) energy =    -744.9153414
C           7.3300820    -2.2688773    -1.4417280
H           8.3719958    -2.4150568    -1.7130381
C           6.5824318    -1.2628117    -2.0558686
H           7.0379326    -0.6248615    -2.8081068
C           5.2464168    -1.0747929    -1.7019592
H           4.6613774    -0.2902355    -2.1757374
C           4.6551965    -1.8884910    -0.7295557
C           5.3980100    -2.9108285    -0.1315380
H           4.9487319    -3.5690572     0.6046868
C           6.7372142    -3.0908729    -0.4811200
H           7.3154309    -3.8794410    -0.0070594
S           2.8693632    -1.5813424    -0.4649650
C           2.7067391    -2.2651935     1.2284445
H           3.3916172    -1.7517427     1.9090151
H           2.8863770    -3.3433574     1.2239187
H           1.6722787    -2.0796545     1.5270395
O           2.0583470    -2.4618201    -1.3906610
17
222_C7H8OS_4-6-11-16 (105,) energy =    -744.9167825
C           7.3374070    -2.2490386    -1.4116254
H           8.3895142    -2.3657803    -1.6567337
C           6.6059417    -1.1942870    -1.9583525
H           7.0836297    -0.4897864    -2.6335372
C           5.2540258    -1.0476529    -1.6421233
H           4.6768401    -0.2301750    -2.0670863
C           4.6399733    -1.9448993    -0.7641073
C           5.3644746    -3.0210609    -0.2414001
H           4.8843243    -3.7506534     0.4035056
C           6.7153990    -3.1630807    -0.5564829
H           7.2819360    -3.9923264    -0.1414713
S           2.8373241    -1.7310833    -0.5476341
C           2.7377101    -2.1201884     1.2429723
H           3.3701448    -1.4273074     1.8051289
H           3.0322784    -3.1562588     1.4282458
H           1.6906312    -1.9903511     1.5273877
O           2.1059940    -2.8226625    -1.2974227
17
222_C7H8OS_4-6-11-16 (120,) energy =    -744.9184988
C           7.3304855    -2.2328764    -1.3779364
H           8.3917171    -2.3195427    -1.5945580
C           6.6083946    -1.1404111    -1.8586421
H           7.1022792    -0.3778985    -2.4545869
C           5.2426204    -1.0333593    -1.5847467
H           4.6697797    -0.1914493    -1.9654244
C           4.6138760    -2.0065171    -0.8060193
C           5.3261901    -3.1220886    -0.3548509
H           4.8179514    -3.9103962     0.1934420
C           6.6880458    -3.2263240    -0.6318757
H           7.2484398    -4.0862424    -0.2750217
S           2.8049289    -1.8725962    -0.6017893
C           2.7670115    -1.9836976     1.2312824
H           3.3201333    -1.1412414     1.6565899
H           3.1943168    -2.9333918     1.5634800
H           1.7161871    -1.9332803     1.5276516
O           2.1561154    -3.1247020    -1.1481277
17
222_C7H8OS_4-6-11-16 (135,) energy =    -744.9201474
C           7.3219829    -2.2226485    -1.3464429
H           8.3901761    -2.2775559    -1.5378746
C           6.5982327    -1.1023642    -1.7568804
H           7.0990624    -0.2880188    -2.2731915
C           5.2228346    -1.0346598    -1.5196948
H           4.6472553    -0.1735720    -1.8505958
C           4.5913485    -2.0796415    -0.8449995
C           5.3022899    -3.2207879    -0.4647696
H           4.7759795    -4.0554598    -0.0094715
C           6.6732595    -3.2843421    -0.7071826
H           7.2360875    -4.1645312    -0.4081547
S           2.7801567    -2.0195997    -0.6351544
C           2.7824555    -1.8593954     1.1965498
H           3.2876863    -0.9317562     1.4809094
H           3.2845144    -2.7238106     1.6394472
H           1.7375029    -1.8344373     1.5165251
O           2.2210310    -3.3861888    -0.9633829
17
222_C7H8OS_4-6-11-16 (150,) energy =    -744.9215595
C           7.3182292    -2.2168618    -1.3279563
H           8.3899334    -2.2396766    -1.5057822
C           6.5840257    -1.0734486    -1.6495586
H           7.0815216    -0.2095272    -2.0817722
C           5.2043554    -1.0451111    -1.4330130
H           4.6221977    -0.1656425    -1.6986815
C           4.5805512    -2.1581340    -0.8689466
C           5.2993219    -3.3171982    -0.5741806
H           4.7684524    -4.1890732    -0.2014801
C           6.6757413    -3.3394528    -0.7970012
H           7.2471520    -4.2346502    -0.5665510
S           2.7691160    -2.1632618    -0.6471516
C           2.7810387    -1.7316543     1.1413924
H           3.2352552    -0.7458747     1.2774113
H           3.3393160    -2.4943791     1.6908442
H           1.7401565    -1.7178163     1.4753759
O           2.2980190    -3.5971488    -0.7528537
17
222_C7H8OS_4-6-11-16 (165,) energy =    -744.9224223
C           7.2138141    -2.1502648    -1.6009123
H           8.1568815    -1.9933510    -2.1173141
C           6.2878720    -3.0667502    -2.1062941
H           6.5109712    -3.6238111    -3.0122068
C           5.0797933    -3.2793993    -1.4400234
H           4.3637325    -4.0052845    -1.8194473
C           4.8052994    -2.5509617    -0.2814725
C           5.7296106    -1.6509115     0.2447657
H           5.4931943    -1.1406935     1.1744980
C           6.9369758    -1.4476905    -0.4255078
H           7.6649481    -0.7459342    -0.0272630
S           3.2592339    -2.8422157     0.6459528
C           2.2084449    -1.7117761    -0.3566296
H           2.1813486    -2.0572316    -1.3940166
H           2.6178818    -0.7000834    -0.2948737
H           1.2048498    -1.7376036     0.0761450
O           3.4225893    -2.2015220     2.0070731
17
222_C7H8OS_4-6-11-16 (180,) energy =    -744.9224091
C           7.2188260    -2.1564530    -1.5945803
H           8.1541928    -2.0204952    -2.1304904
C           6.2239685    -2.9806942    -2.1288032
H           6.3850512    -3.4840921    -3.0782539
C           5.0237492    -3.1644121    -1.4417025
H           4.2556499    -3.8182951    -1.8490606
C           4.8294468    -2.5068160    -0.2249049
C           5.8157947    -1.6901832     0.3221985
H           5.6254808    -1.2093503     1.2775469
C           7.0155504    -1.5152175    -0.3712203
H           7.7918838    -0.8789566     0.0452702
S           3.2968459    -2.7449494     0.7414649
C           2.1844514    -1.8392943    -0.4116633
H           2.1748968    -2.3332167    -1.3871046
H           2.5346082    -0.8078018    -0.5006043
H           1.1847442    -1.8602239     0.0300079
O           3.4199563    -1.8940467     1.9872073
