22
403_C10H12_0-6-14-16 (-165,) energy =    -388.2653720
C           0.9438282    -0.0874690     1.3285779
H           1.7092191    -0.1201951     2.1012491
C          -0.2668370     0.5530857     1.5864571
H          -0.4378436     1.0154091     2.5554796
C          -1.2587493     0.6003905     0.6033858
H          -2.2036930     1.0992298     0.8017710
C           1.1955976    -0.6892533     0.0852772
C          -1.0254921     0.0009044    -0.6336728
H          -1.7908981     0.0284841    -1.4052609
C           0.1912534    -0.6371691    -0.8886958
H           0.3565695    -1.1033333    -1.8562431
C           3.8489258    -0.5945508     0.0120566
H           4.3560839    -0.6466559     0.9809847
H           3.7146394     0.4580552    -0.2596413
C           2.5131008    -1.3863623    -0.1567561
H           2.5633464    -2.2852733     0.4739909
C           2.9791635    -1.7602977    -1.5923197
H           2.6097962    -1.0405768    -2.3312095
H           2.7681081    -2.7724763    -1.9524782
C           4.4313242    -1.4213005    -1.1633228
H           5.0641361    -0.8985872    -1.8870712
H           4.9673778    -2.3082095    -0.8085500
22
403_C10H12_0-6-14-16 (-150,) energy =    -388.2655376
C           1.0087016     0.0301183     1.2522147
H           1.8213872     0.1016087     1.9715845
C          -0.2013567     0.6727310     1.5145927
H          -0.3233794     1.2396286     2.4342325
C          -1.2519535     0.5916352     0.5982678
H          -2.1945568     1.0937294     0.7995618
C           1.1957821    -0.7047091     0.0723603
C          -1.0800681    -0.1369494    -0.5793682
H          -1.8905034    -0.2054061    -1.3008149
C           0.1331855    -0.7775239    -0.8380967
H           0.2560973    -1.3411351    -1.7597336
C           3.8531168    -0.7136489     0.1297067
H           4.3237632    -0.9194694     1.0966126
H           3.7684386     0.3713199     0.0034010
C           2.4997930    -1.4195492    -0.1884291
H           2.4852250    -2.3940496     0.3210470
C           3.0080642    -1.6268833    -1.6455738
H           2.6774798    -0.8112888    -2.2983083
H           2.7859468    -2.5807272    -2.1351100
C           4.4524119    -1.3920927    -1.1299431
H           5.1217676    -0.7943717    -1.7561576
H           4.9545855    -2.3339965    -0.8843580
22
403_C10H12_0-6-14-16 (-135,) energy =    -388.2655099
C           1.0607811     0.1332975     1.1565610
H           1.9125890     0.2943805     1.8125816
C          -0.1473171     0.7797540     1.4262897
H          -0.2255004     1.4394147     2.2869464
C          -1.2493744     0.5840042     0.5933963
H          -2.1892251     1.0891812     0.7997556
C           1.1909594    -0.7213946     0.0542628
C          -1.1337650    -0.2647148    -0.5097270
H          -1.9850171    -0.4231901    -1.1671941
C           0.0744493    -0.9093347    -0.7740201
H           0.1548474    -1.5667532    -1.6369020
C           3.8471687    -0.8361919     0.2159277
H           4.2703510    -1.1728419     1.1679767
H           3.8090147     0.2588784     0.2154315
C           2.4857133    -1.4426901    -0.2339940
H           2.4177622    -2.4738554     0.1418253
C           3.0452296    -1.4817117    -1.6897605
H           2.7693994    -0.5740587    -2.2377495
H           2.8065376    -2.3527059    -2.3088234
C           4.4736585    -1.3795632    -1.0950238
H           5.1951217    -0.7414651    -1.6144357
H           4.9237871    -2.3675886    -0.9500806
22
403_C10H12_0-6-14-16 (-120,) energy =    -388.2653249
C           1.0939688     0.2406791     1.0528303
H           1.9747662     0.4858562     1.6398293
C          -0.1128243     0.8910651     1.3242953
H          -0.1563121     1.6367437     2.1142632
C          -1.2560394     0.5875402     0.5862527
H          -2.1943394     1.0947665     0.7946155
C           1.1803574    -0.7260187     0.0440195
C          -1.1850062    -0.3758468    -0.4235482
H          -2.0699771    -0.6218496    -1.0051858
C           0.0197103    -1.0245636    -0.6878611
H           0.0648273    -1.7741010    -1.4753958
C           3.8332016    -0.9616879     0.2917417
H           4.1999564    -1.4275891     1.2121921
H           3.8500382     0.1263526     0.4183808
C           2.4686018    -1.4470951    -0.2742884
H           2.3503056    -2.5143500    -0.0393552
C           3.0849017    -1.3266474    -1.7051740
H           2.8715665    -0.3442114    -2.1399864
H           2.8300922    -2.0993313    -2.4378866
C           4.4903065    -1.3720533    -1.0525451
H           5.2608326    -0.7113180    -1.4613773
H           4.8885409    -2.3917671    -1.0162770
22
403_C10H12_0-6-14-16 (-105,) energy =    -388.2651746
C           1.1190790     0.3228884     0.9272503
H           2.0243676     0.6473208     1.4320236
C          -0.0866956     0.9707162     1.2094394
H          -0.1021207     1.7904295     1.9234564
C          -1.2648912     0.5686185     0.5821336
H          -2.2025735     1.0726301     0.8007856
C           1.1709663    -0.7396051     0.0170959
C          -1.2298232    -0.4923875    -0.3266578
H          -2.1426349    -0.8190578    -0.8185967
C          -0.0260684    -1.1383831    -0.6004190
H          -0.0093135    -1.9674582    -1.3053075
C           3.8149591    -1.1056054     0.3274735
H           4.1217580    -1.6967123     1.1964667
H           3.8826423    -0.0435678     0.5858146
C           2.4536826    -1.4532404    -0.3377136
H           2.2912232    -2.5363327    -0.2529084
C           3.1289920    -1.1743991    -1.7209099
H           2.9800689    -0.1318787    -2.0222923
H           2.8610681    -1.8259466    -2.5590928
C           4.5038949    -1.3803435    -1.0356943
H           5.3238727    -0.7188035    -1.3314044
H           4.8456047    -2.4179027    -1.1163165
22
403_C10H12_0-6-14-16 (-90,) energy =    -388.2653065
C           1.1398396     0.4078119     0.7839311
H           2.0666670     0.8065314     1.1862055
C          -0.0624424     1.0526352     1.0830015
H          -0.0541954     1.9403712     1.7105564
C          -1.2686883     0.5605055     0.5847569
H          -2.2042797     1.0614832     0.8187835
C           1.1630356    -0.7413478    -0.0173274
C          -1.2630847    -0.5863079    -0.2123332
H          -2.1966355    -0.9847008    -0.6017759
C          -0.0607342    -1.2286468    -0.5035587
H          -0.0667248    -2.1262472    -1.1189971
C           3.7817534    -1.2406368     0.3644452
H           4.0226406    -1.9498220     1.1630278
H           3.8765248    -0.2252007     0.7624030
C           2.4413853    -1.4492649    -0.3967624
H           2.2399170    -2.5268229    -0.4542550
C           3.1922089    -1.0301118    -1.7043401
H           3.0928629     0.0468266    -1.8791819
H           2.9400465    -1.5621621    -2.6274683
C           4.5253253    -1.3721919    -0.9914629
H           5.3818015    -0.7142031    -1.1676357
H           4.8336136    -2.4053359    -1.1851388
22
403_C10H12_0-6-14-16 (-75,) energy =    -388.2657548
C           1.1482507     0.4762248     0.6175313
H           2.0936135     0.9349212     0.8952509
C          -0.0430176     1.1196628     0.9549932
H          -0.0110089     2.0645266     1.4917922
C          -1.2713429     0.5533207     0.6099315
H          -2.1992843     1.0531988     0.8747433
C           1.1410171    -0.7450911    -0.0721357
C          -1.2963370    -0.6630349    -0.0739183
H          -2.2460067    -1.1177348    -0.3444998
C          -0.1020402    -1.3030271    -0.4059015
H          -0.1312524    -2.2544971    -0.9331556
C           3.7151185    -1.3735670     0.3757158
H           3.8923507    -2.1856131     1.0884801
H           3.8033973    -0.4213704     0.9087400
C           2.4134611    -1.4476878    -0.4765934
H           2.1838998    -2.5031669    -0.6690911
C           3.2479394    -0.9030045    -1.6825492
H           3.1802359     0.1891224    -1.7393158
H           3.0374486    -1.3200360    -2.6728131
C           4.5326755    -1.3576554    -0.9432710
H           5.4080826    -0.7026781    -0.9917141
H           4.8361698    -2.3666269    -1.2429069
22
403_C10H12_0-6-14-16 (-60,) energy =    -388.2662183
C           1.1578714     0.5338501     0.4365486
H           2.1093730     1.0391136     0.5853530
C          -0.0204483     1.1734717     0.8194631
H           0.0246855     2.1650594     1.2628644
C          -1.2541142     0.5444084     0.6364659
H          -2.1726738     1.0422131     0.9356777
C           1.1330793    -0.7464606    -0.1381027
C          -1.2961144    -0.7286805     0.0677475
H          -2.2494432    -1.2301559    -0.0788414
C          -0.1129802    -1.3642099    -0.3128920
H          -0.1548480    -2.3582209    -0.7534586
C           3.6449429    -1.5024692     0.3724198
H           3.7591009    -2.3955255     0.9956627
H           3.7029190    -0.6199556     1.0184213
C           2.3996154    -1.4435273    -0.5663208
H           2.1515943    -2.4630955    -0.8854888
C           3.3253552    -0.7953302    -1.6460474
H           3.2815413     0.2982395    -1.5968675
H           3.1759337    -1.1039674    -2.6859509
C           4.5512400    -1.3542494    -0.8778842
H           5.4337570    -0.7126045    -0.7924899
H           4.8661353    -2.3276860    -1.2690436
22
403_C10H12_0-6-14-16 (-45,) energy =    -388.2661905
C           1.1337486     0.6040736     0.2615431
H           2.0681675     1.1598406     0.2855432
C          -0.0378456     1.2241885     0.6943748
H          -0.0046131     2.2521685     1.0465888
C          -1.2499530     0.5305038     0.6747361
H          -2.1634072     1.0139271     1.0108594
C           1.1240010    -0.7214919    -0.1993955
C          -1.2774259    -0.7873682     0.2180101
H          -2.2143889    -1.3381932     0.1955127
C          -0.1014534    -1.4021978    -0.2148530
H          -0.1327111    -2.4293306    -0.5725288
C           3.5648820    -1.6192550     0.3482113
H           3.6095075    -2.5770722     0.8770754
H           3.5988541    -0.8108456     1.0867893
C           2.3855674    -1.4092999    -0.6572681
H           2.1223242    -2.3780294    -1.0985799
C           3.4030187    -0.6868500    -1.5949772
H           3.3979943     0.3965838    -1.4358849
H           3.3143430    -0.8784392    -2.6694851
C           4.5566198    -1.3726415    -0.8176523
H           5.4518583    -0.7790658    -0.6077306
H           4.8651797    -2.3100277    -1.2929601
22
403_C10H12_0-6-14-16 (-30,) energy =    -388.2656627
C           1.0782829     0.6855971     0.1053476
H           1.9720932     1.2956695     0.0065913
C          -0.0979040     1.2760025     0.5696014
H          -0.1054326     2.3336178     0.8212786
C          -1.2609582     0.5166281     0.7067404
H          -2.1773827     0.9772802     1.0659460
C           1.1206499    -0.6752559    -0.2308120
C          -1.2368145    -0.8384492     0.3731381
H          -2.1365513    -1.4409337     0.4698005
C          -0.0590749    -1.4222867    -0.0934553
H          -0.0513798    -2.4778459    -0.3579261
C           3.4851477    -1.7341475     0.3402771
H           3.4451540    -2.7388821     0.7737850
H           3.5165976    -1.0011494     1.1539916
C           2.3836128    -1.3517881    -0.7044734
H           2.1120923    -2.2548725    -1.2649209
C           3.4918784    -0.5905949    -1.4918945
H           3.5489986     0.4640239    -1.2041474
H           3.4583328    -0.6481324    -2.5848641
C           4.5548876    -1.4336566    -0.7399204
H           5.4730337    -0.9295549    -0.4228080
H           4.8277251    -2.3342979    -1.3005549
22
403_C10H12_0-6-14-16 (-15,) energy =    -388.2652568
C           1.0260154     0.7470240    -0.0565982
H           1.8680252     1.3949459    -0.2821339
C          -0.1531879     1.3121228     0.4349352
H          -0.2107499     2.3872365     0.5858620
C          -1.2528028     0.5056132     0.7271266
H          -2.1705630     0.9453824     1.1084453
C           1.1311984    -0.6337884    -0.2677384
C          -1.1653721    -0.8727246     0.5183545
H          -2.0169419    -1.5127825     0.7353100
C           0.0118826    -1.4305037     0.0229192
H           0.0684108    -2.5044934    -0.1439612
C           3.4240937    -1.8520548     0.2776828
H           3.3187935    -2.8974618     0.5858572
H           3.4497077    -1.2210992     1.1728676
C           2.3956484    -1.2943071    -0.7621770
H           2.1227604    -2.1131941    -1.4404826
C           3.5703386    -0.4978193    -1.3988655
H           3.6665707     0.5055154    -0.9715823
H           3.5895632    -0.4136087    -2.4903275
C           4.5558958    -1.4814769    -0.7139342
H           5.4807173    -1.0677201    -0.3003869
H           4.8113578    -2.3213798    -1.3690275
22
403_C10H12_0-6-14-16 (0,) energy =    -388.2651904
C           0.9683479     0.7786853    -0.2067719
H           1.7627411     1.4371075    -0.5461359
C          -0.2111026     1.3353760     0.2957238
H          -0.3159673     2.4163539     0.3453015
C          -1.2488389     0.5119102     0.7296230
H          -2.1656817     0.9442623     1.1214977
C           1.1321647    -0.6090967    -0.2886294
C          -1.1010843    -0.8755852     0.6515813
H          -1.9047440    -1.5288612     0.9822161
C           0.0745352    -1.4255847     0.1450806
H           0.1787622    -2.5071514     0.0833834
C           3.3561771    -1.9717858     0.2006704
H           3.2121081    -3.0442311     0.3677157
H           3.3552476    -1.4601409     1.1692057
C           2.3959327    -1.2552263    -0.8046640
H           2.1299175    -1.9746153    -1.5912013
C           3.6183559    -0.4252441    -1.2871177
H           3.7165046     0.5131054    -0.7309590
H           3.6958779    -0.2072417    -2.3572208
C           4.5432780    -1.5166579    -0.6859016
H           5.4575320    -1.1866604    -0.1832098
H           4.8082594    -2.2771698    -1.4284139
22
403_C10H12_0-6-14-16 (15,) energy =    -388.2653606
C           0.9083564     0.7988459    -0.3392239
H           1.6566700     1.4517708    -0.7802137
C          -0.2696138     1.3518721     0.1701431
H          -0.4234769     2.4270933     0.1232819
C          -1.2434601     0.5306265     0.7368460
H          -2.1588766     0.9596083     1.1357095
C           1.1338189    -0.5821222    -0.2953930
C          -1.0322030    -0.8497947     0.7874342
H          -1.7844555    -1.5005247     1.2263658
C           0.1426652    -1.3968793     0.2749937
H           0.2980173    -2.4729146     0.3187605
C           3.2953790    -2.0750520     0.0938432
H           3.1327732    -3.1577830     0.1009695
H           3.2559993    -1.7059781     1.1243920
C           2.3940110    -1.2086420    -0.8429601
H           2.1390597    -1.8101243    -1.7269908
C           3.6499283    -0.3523716    -1.1699330
H           3.7291675     0.5126480    -0.5023472
H           3.7820054    -0.0120206    -2.2021656
C           4.5307715    -1.5263133    -0.6658289
H           5.4172865    -1.2749892    -0.0756121
H           4.8330531    -2.1890791    -1.4837648
22
403_C10H12_0-6-14-16 (30,) energy =    -388.2655285
C           0.8362036     0.7935760    -0.4684479
H           1.5335744     1.4294158    -1.0083264
C          -0.3414959     1.3427497     0.0425525
H          -0.5508394     2.3997049    -0.1023743
C          -1.2452113     0.5401303     0.7396245
H          -2.1607765     0.9665386     1.1409157
C           1.1328414    -0.5648256    -0.2959873
C          -0.9616968    -0.8153572     0.9202231
H          -1.6573955    -1.4495986     1.4640382
C           0.2154834    -1.3597336     0.4069092
H           0.4283053    -2.4160171     0.5554785
C           3.2317433    -2.1708873    -0.0140942
H           3.0535387    -3.2416929    -0.1569167
H           3.1497914    -1.9398589     1.0536704
C           2.3923030    -1.1708127    -0.8670599
H           2.1593301    -1.6443632    -1.8317999
C           3.6790449    -0.3101218    -1.0322648
H           3.7338538     0.4689949    -0.2638198
H           3.8685303     0.1462177    -2.0093417
C           4.5131080    -1.5569965    -0.6363830
H           5.3714561    -1.4016164     0.0243348
H           4.8477102    -2.1183288    -1.5153518
22
403_C10H12_0-6-14-16 (45,) energy =    -388.2655200
C           0.7636704     0.7717089    -0.6036566
H           1.4000804     1.3807340    -1.2418327
C          -0.4151971     1.3119607    -0.0900011
H          -0.6890484     2.3362799    -0.3303545
C          -1.2401543     0.5417048     0.7326093
H          -2.1579531     0.9615014     1.1357669
C           1.1447443    -0.5453022    -0.3069767
C          -0.8745191    -0.7704796     1.0344127
H          -1.5081179    -1.3792706     1.6746546
C           0.3073728    -1.3064700     0.5189356
H           0.5820296    -2.3299767     0.7617870
C           3.1852915    -2.2469834    -0.1392500
H           2.9902765    -3.2857932    -0.4250804
H           3.0623887    -2.1519571     0.9453562
C           2.4098314    -1.1261370    -0.8919207
H           2.2115308    -1.4626845    -1.9198027
C           3.7240714    -0.2859065    -0.8883745
H           3.7547155     0.3895792    -0.0264586
H           3.9704370     0.2835674    -1.7904912
C           4.5091880    -1.5961119    -0.6192109
H           5.3383931    -1.5519273     0.0934817
H           4.8721992    -2.0502302    -1.5474859
22
403_C10H12_0-6-14-16 (60,) energy =    -388.2653316
C           0.6738172     0.7281009    -0.7276928
H           1.2423224     1.2906473    -1.4655129
C          -0.5044817     1.2648466    -0.2123260
H          -0.8470669     2.2400581    -0.5493657
C          -1.2450809     0.5511420     0.7336552
H          -2.1646479     0.9671589     1.1366825
C           1.1440620    -0.5267873    -0.3082001
C          -0.7946299    -0.6996445     1.1537608
H          -1.3643589    -1.2660564     1.8862522
C           0.3895795    -1.2320319     0.6368666
H           0.7245440    -2.2101602     0.9709366
C           3.1369456    -2.3094795    -0.2677186
H           2.9195672    -3.2969079    -0.6878760
H           2.9882061    -2.3491827     0.8169429
C           2.4209116    -1.0797498    -0.8949457
H           2.2704870    -1.2695307    -1.9670814
C           3.7559789    -0.2864791    -0.7209280
H           3.7665794     0.2550088     0.2311476
H           4.0496264     0.4010997    -1.5208210
C           4.4951193    -1.6451205    -0.6160249
H           5.3016090    -1.7279247     0.1189185
H           4.8737105    -1.9780283    -1.5884106
22
403_C10H12_0-6-14-16 (75,) energy =    -388.2651721
C           0.5886481     0.6609831    -0.8466784
H           1.0869599     1.1579628    -1.6768779
C          -0.5890393     1.1974308    -0.3303687
H          -1.0013527     2.1076743    -0.7586217
C          -1.2415932     0.5635101     0.7303066
H          -2.1624249     0.9769899     1.1330334
C           1.1487312    -0.5124828    -0.3151705
C          -0.7031160    -0.6070698     1.2625559
H          -1.2050421    -1.1138122     2.0830801
C           0.4813402    -1.1381088     0.7446287
H           0.8803508    -2.0548263     1.1688994
C           3.1006574    -2.3576084    -0.4080100
H           2.8757238    -3.2715650    -0.9673022
H           2.9101404    -2.5425154     0.6543695
C           2.4425556    -1.0351315    -0.8926959
H           2.3521882    -1.0708148    -1.9867335
C           3.7849148    -0.3118930    -0.5424218
H           3.7581472     0.0812131     0.4796303
H           4.1278487     0.4799774    -1.2163937
C           4.4881298    -1.6914892    -0.6062626
H           5.2631152    -1.9029768     0.1367678
H           4.8957663    -1.8923150    -1.6029402
22
403_C10H12_0-6-14-16 (90,) energy =    -388.2653380
C           0.5031677     0.5896542    -0.9492128
H           0.9306380     1.0182231    -1.8536931
C          -0.6804796     1.1130347    -0.4311748
H          -1.1673898     1.9453026    -0.9332858
C          -1.2415981     0.5651719     0.7244353
H          -2.1668055     0.9669462     1.1289725
C           1.1577634    -0.4860053    -0.3282640
C          -0.6054305    -0.5061319     1.3516724
H          -1.0341526    -0.9450449     2.2491864
C           0.5827656    -1.0233514     0.8311524
H           1.0597191    -1.8591421     1.3350987
C           3.0621923    -2.3764178    -0.5585624
H           2.8430548    -3.1959737    -1.2506518
H           2.8055321    -2.7009837     0.4549807
C           2.4674358    -0.9786798    -0.8946716
H           2.4398669    -0.8675202    -1.9863708
C           3.8076988    -0.3553353    -0.3808856
H           3.7333027    -0.1008650     0.6821154
H           4.2065992     0.5081505    -0.9232117
C           4.4762831    -1.7377408    -0.5916537
H           5.2032405    -2.0724421     0.1547159
H           4.9332244    -1.8183278    -1.5839548
22
403_C10H12_0-6-14-16 (105,) energy =    -388.2658223
C           0.4214690     0.5262642    -1.0235397
H           0.7843350     0.8950276    -1.9808731
C          -0.7796884     1.0136983    -0.5075271
H          -1.3436210     1.7577217    -1.0645110
C          -1.2567725     0.5441298     0.7169671
H          -2.1937219     0.9182225     1.1210364
C           1.1728413    -0.4366066    -0.3338874
C          -0.5199210    -0.4124918     1.4177042
H          -0.8817298    -0.7865027     2.3722436
C           0.6819398    -0.8940662     0.8980720
H           1.2420786    -1.6362014     1.4611138
C           3.0142511    -2.3580018    -0.6927564
H           2.8117373    -3.0743397    -1.4957160
H           2.6685924    -2.7918843     0.2511619
C           2.4941853    -0.9030880    -0.8925370
H           2.5250433    -0.6660700    -1.9633173
C           3.8266753    -0.4039038    -0.2426509
H           3.7023629    -0.2527344     0.8353118
H           4.2917563     0.4899306    -0.6711657
C           4.4513668    -1.7875554    -0.5589785
H           5.1059146    -2.2341939     0.1958677
H           4.9787556    -1.7853247    -1.5189570
22
403_C10H12_0-6-14-16 (120,) energy =    -388.2662275
C           0.3660122     0.4637633    -1.0756548
H           0.6780197     0.7726191    -2.0712407
C          -0.8580343     0.9039511    -0.5690202
H          -1.4899027     1.5514170    -1.1717870
C          -1.2685209     0.5130408     0.7055606
H          -2.2212044     0.8525317     1.1033290
C           1.2043607    -0.3728834    -0.3262245
C          -0.4442360    -0.3191363     1.4666930
H          -0.7535877    -0.6299064     2.4614995
C           0.7775026    -0.7548197     0.9553312
H           1.4073753    -1.4004842     1.5628896
C           2.9706840    -2.3180015    -0.8105862
H           2.7694204    -2.9400258    -1.6889806
H           2.5524048    -2.8171322     0.0700528
C           2.5324654    -0.8217821    -0.8811494
H           2.6160825    -0.4796894    -1.9198807
C           3.8571599    -0.4661699    -0.1316495
H           3.6961612    -0.4125788     0.9506398
H           4.3860844     0.4379355    -0.4506932
C           4.4262228    -1.8442811    -0.5588313
H           5.0206368    -2.3982425     0.1743907
H           4.9987540    -1.7763368    -1.4901208
22
403_C10H12_0-6-14-16 (135,) energy =    -388.2662020
C           0.3298784     0.3897629    -1.1064337
H           0.6071671     0.6327377    -2.1301449
C          -0.9199615     0.7778152    -0.6208207
H          -1.6062158     1.3189109    -1.2674096
C          -1.2857914     0.4731945     0.6904425
H          -2.2571670     0.7744600     1.0735261
C           1.2398329    -0.3071733    -0.2993412
C          -0.3919970    -0.2227866     1.5075217
H          -0.6667943    -0.4658719     2.5308954
C           0.8546815    -0.6085102     1.0162419
H           1.5359809    -1.1522986     1.6664710
C           2.9316141    -2.2617749    -0.9190439
H           2.7284451    -2.7835914    -1.8600619
H           2.4523272    -2.8140321    -0.1033188
C           2.5746205    -0.7408231    -0.8509978
H           2.7068471    -0.3029202    -1.8476316
C           3.8883030    -0.5382494    -0.0324621
H           3.7006321    -0.5826809     1.0455657
H           4.4750811     0.3617561    -0.2441269
C           4.3995704    -1.8965451    -0.5791788
H           4.9406435    -2.5514915     0.1108547
H           5.0052002    -1.7681346    -1.4828080
22
403_C10H12_0-6-14-16 (150,) energy =    -388.2657401
C           0.7642513    -0.4529661     1.4452213
H           1.3572618    -0.7965165     2.2904922
C          -0.4681223     0.1596671     1.6733851
H          -0.8263979     0.2898072     2.6914957
C          -1.2399982     0.5995858     0.5971203
H          -2.2025045     1.0738318     0.7695887
C           1.2558199    -0.6406947     0.1447083
C          -0.7649489     0.4226072    -0.7034991
H          -1.3579035     0.7601468    -1.5499078
C           0.4699395    -0.1880192    -0.9252836
H           0.8217495    -0.3127242    -1.9459796
C           3.8240685    -0.3267637    -0.4350857
H           4.4377513     0.0606039     0.3849259
H           3.4878062     0.5151996    -1.0501468
C           2.6192583    -1.2534932    -0.0605044
H           2.8885977    -1.8267360     0.8350805
C           2.9679868    -2.1016565    -1.3207073
H           2.4042089    -1.7779168    -2.2014484
H           2.8745678    -3.1891105    -1.2326795
C           4.3888299    -1.4794659    -1.3034525
H           4.8415350    -1.2187025    -2.2651090
H           5.0960991    -2.1000604    -0.7426707
22
403_C10H12_0-6-14-16 (165,) energy =    -388.2652872
C           0.8178807    -0.3488621     1.4314218
H           1.4704907    -0.6039572     2.2642004
C          -0.3972665     0.2873034     1.6795905
H          -0.6838917     0.5247722     2.7010430
C          -1.2465796     0.6118437     0.6193666
H          -2.1970327     1.1035246     0.8089650
C           1.2189954    -0.6715349     0.1250000
C          -0.8654516     0.2937611    -0.6840775
H          -1.5197998     0.5356412    -1.5179347
C           0.3556733    -0.3391647    -0.9271890
H           0.6302635    -0.5805584    -1.9499708
C           3.8262930    -0.3949375    -0.2742824
H           4.3947708    -0.1289420     0.6229554
H           3.5609386     0.5235163    -0.8092564
C           2.5693123    -1.3102466    -0.0934903
H           2.7704445    -2.0018065     0.7349141
C           2.9678836    -2.0079023    -1.4256752
H           2.4914752    -1.5398504    -2.2931314
H           2.8213015    -3.0909173    -1.4918127
C           4.4084421    -1.4647233    -1.2324023
H           4.9441774    -1.1169747    -2.1209885
H           5.0432211    -2.1813731    -0.7000620
22
403_C10H12_0-6-14-16 (180,) energy =    -388.2651859
C           0.8801970    -0.2198520     1.3865114
H           1.5927997    -0.3658848     2.1960474
C          -0.3299168     0.4216613     1.6420667
H          -0.5533933     0.7726129     2.6464815
C          -1.2557368     0.6080585     0.6119589
H          -2.2018632     1.1052265     0.8087948
C           1.2008176    -0.6828929     0.0996934
C          -0.9562682     0.1454188    -0.6685319
H          -1.6704075     0.2774851    -1.4775863
C           0.2612912    -0.4928091    -0.9205616
H           0.4729525    -0.8527248    -1.9232093
C           3.8381553    -0.4876121    -0.1273736
H           4.3748683    -0.3774581     0.8205800
H           3.6443670     0.5078801    -0.5412213
C           2.5348851    -1.3523114    -0.1299794
H           2.6596420    -2.1550854     0.6095150
C           2.9675809    -1.8925922    -1.5216977
H           2.5539333    -1.2908115    -2.3378861
H           2.7812494    -2.9496179    -1.7376379
C           4.4186079    -1.4486373    -1.1961400
H           5.0081958    -1.0106086    -2.0072956
H           4.9987463    -2.2585189    -0.7407891
