32
424_C15H15NO_0-14-15-26 (-165,) energy =    -710.5906998
C           0.3314124     0.8960074    -0.9341143
N           0.5079029     1.6254344    -2.0929807
C          -0.6037370     2.3463299    -2.6878193
H          -1.2118794     2.8220456    -1.9137313
H          -1.2571249     1.7066327    -3.3047801
H          -0.2042658     3.1383840    -3.3282012
C           1.6674568     1.4619803    -2.9565015
H           2.1995692     0.5415671    -2.7030493
H           2.3716803     2.2962111    -2.8675932
H           1.3277858     1.3764462    -3.9966415
C          -0.9780308     0.5312473    -0.5356947
H          -1.8243466     0.8490729    -1.1330964
C          -1.2068568    -0.2751411     0.5692646
H          -2.2293067    -0.5419967     0.8256946
C           1.4274784     0.4465400    -0.1240187
C           2.7731824     1.0932832    -0.1711649
C          -0.1407679    -0.7602334     1.3317143
H          -0.3150886    -1.3912247     2.1977461
C           6.3100845    -0.7867197     1.4228440
H           7.2164951    -1.2432350     1.8118550
C           6.1184094     0.5937593     1.5322489
H           6.8755478     1.2124113     2.0067587
C           1.1486962    -0.3880996     0.9799748
H           1.9733248    -0.6972295     1.6120642
C           4.9618458     1.1798827     1.0247913
H           4.8099773     2.2532414     1.0764741
C           3.9664097     0.3915904     0.4285784
C           4.1698185    -0.9920459     0.3164909
H           3.4187148    -1.6089012    -0.1683876
C           5.3386080    -1.5766436     0.8058476
H           5.4906538    -2.6478436     0.7033833
O           2.9287846     2.2338437    -0.6035713
32
424_C15H15NO_0-14-15-26 (-150,) energy =    -710.5919282
C           0.3183038     0.8802284    -0.8966005
N           0.5480548     1.5845200    -2.0632559
C          -0.5540943     2.1967824    -2.7841686
H          -1.2683722     2.6445153    -2.0875461
H          -1.0953967     1.4890162    -3.4342844
H          -0.1594606     2.9997661    -3.4135903
C           1.8106504     1.5339082    -2.7828838
H           2.3847611     0.6539853    -2.4790904
H           2.4304181     2.4203550    -2.6042374
H           1.6057427     1.4421634    -3.8564659
C          -0.9922681     0.4342438    -0.5977726
H          -1.8026730     0.6622140    -1.2801319
C          -1.2629955    -0.3346349     0.5256362
H          -2.2838424    -0.6623252     0.7067225
C           1.3598425     0.5403683     0.0243271
C           2.6914354     1.2218560     0.0307852
C          -0.2398089    -0.7077675     1.4008271
H          -0.4478198    -1.3109366     2.2791395
C           6.3006179    -0.8216131     1.1984039
H           7.2237392    -1.3208955     1.4811877
C           6.1831249     0.5650894     1.3357027
H           7.0153719     1.1447183     1.7261885
C           1.0504596    -0.2680686     1.1356937
H           1.8452622    -0.5026669     1.8367144
C           5.0035427     1.2047211     0.9663170
H           4.8996268     2.2820922     1.0452937
C           3.9156043     0.4657737     0.4756715
C           4.0437724    -0.9245628     0.3363225
H           3.2169604    -1.5033470    -0.0636828
C           5.2324428    -1.5634520     0.6915467
H           5.3242695    -2.6395292     0.5706289
O           2.8019484     2.4072639    -0.2731304
32
424_C15H15NO_0-14-15-26 (-135,) energy =    -710.5915424
C           0.3321275     0.8581733    -0.8507244
N           0.6193933     1.5560128    -2.0119597
C          -0.4532900     2.0778386    -2.8393012
H          -1.2563104     2.4836477    -2.2174931
H          -0.8849604     1.3248313    -3.5203456
H          -0.0612464     2.8978430    -3.4483974
C           1.9425079     1.5835670    -2.6150213
H           2.5468604     0.7495117    -2.2476890
H           2.4834668     2.5139855    -2.4024435
H           1.8444450     1.4643792    -3.7009113
C          -0.9676737     0.3345679    -0.6491271
H          -1.7254327     0.4798973    -1.4102350
C          -1.2917594    -0.4014288     0.4835698
H          -2.3027059    -0.7874784     0.5891675
C           1.2997689     0.6196479     0.1707432
C           2.6271481     1.3170352     0.2243148
C          -0.3318837    -0.6696014     1.4615984
H          -0.5798812    -1.2493179     2.3453169
C           6.2777700    -0.8465726     0.9583317
H           7.2101083    -1.3768387     1.1343349
C           6.2214231     0.5421127     1.1165445
H           7.1097374     1.0916596     1.4164545
C           0.9511316    -0.1649238     1.2832830
H           1.7043012    -0.3344421     2.0480348
C           5.0290160     1.2208080     0.8864847
H           4.9659614     2.2992595     0.9896926
C           3.8714007     0.5209028     0.5087768
C           3.9374212    -0.8718409     0.3498192
H           3.0530257    -1.4212346     0.0435831
C           5.1367008    -1.5504025     0.5702932
H           5.1794861    -2.6281169     0.4377195
O           2.7077272     2.5288580     0.0487474
32
424_C15H15NO_0-14-15-26 (-120,) energy =    -710.5905722
C           0.4271853     0.7573353    -0.8294057
N           0.7067867     2.0855937    -1.2652154
C           0.1941048     3.1421060    -0.3841516
H           0.4693552     2.9271637     0.6470980
H          -0.9039344     3.2460399    -0.4591401
H           0.6488935     4.0964452    -0.6731794
C           0.4112446     2.3699272    -2.6635636
H           0.8038283     1.5716358    -3.3000217
H           0.9086394     3.3065834    -2.9396583
H          -0.6661026     2.4938970    -2.8806253
C          -0.6207051     0.0045699    -1.3831510
H          -1.2549205     0.4553937    -2.1396832
C          -0.8730945    -1.3050919    -0.9752591
H          -1.6987738    -1.8554672    -1.4190752
C           1.2532212     0.1388412     0.1413286
C           2.4231732     0.8484087     0.7774444
C          -0.0761285    -1.8996191     0.0008769
H          -0.2670300    -2.9174874     0.3284765
C           6.4052591    -0.7170154     0.3404405
H           7.4177907    -1.0984987     0.2372049
C           6.1235574     0.2736089     1.2871630
H           6.9167551     0.6618546     1.9203860
C           0.9880450    -1.1775913     0.5401315
H           1.6347677    -1.6432755     1.2792759
C           4.8284663     0.7637051     1.4163515
H           4.5889445     1.5393072     2.1364021
C           3.7934283     0.2619368     0.6096134
C           4.0848640    -0.7293044    -0.3397858
H           3.2966783    -1.1133434    -0.9786779
C           5.3865071    -1.2130659    -0.4744414
H           5.6048620    -1.9761643    -1.2165288
O           2.2660875     1.8582945     1.4517996
32
424_C15H15NO_0-14-15-26 (-105,) energy =    -710.5906573
C           0.4600731     0.6727520    -0.7930819
N           0.8543980     1.9764857    -1.2167461
C           0.3605460     3.0691616    -0.3688851
H           0.5454894     2.8398752     0.6802126
H          -0.7201727     3.2489003    -0.5144593
H           0.8984750     3.9889717    -0.6250128
C           0.6652126     2.2719846    -2.6307766
H           1.0504844     1.4493036    -3.2400531
H           1.2318862     3.1771769    -2.8761286
H          -0.3877671     2.4555387    -2.9140738
C          -0.5744921    -0.0413729    -1.4170187
H          -1.1183275     0.4143352    -2.2382968
C          -0.9234623    -1.3248760    -0.9949210
H          -1.7317241    -1.8522827    -1.4949973
C           1.1616083     0.0501162     0.2631871
C           2.3185069     0.7361820     0.9565480
C          -0.2465992    -1.9225331     0.0663803
H          -0.5154859    -2.9197572     0.4027320
C           6.3480852    -0.5036488     0.1321013
H           7.3725705    -0.8071287    -0.0672886
C           6.0792280     0.4313291     1.1376015
H           6.8941080     0.8540809     1.7190853
C           0.7982614    -1.2329540     0.6834990
H           1.3533343    -1.7023515     1.4921147
C           4.7686971     0.8206567     1.3919061
H           4.5353530     1.5475895     2.1630294
C           3.7086035     0.2757609     0.6482652
C           3.9862107    -0.6602434    -0.3590918
H           3.1734305    -1.0810970    -0.9416816
C           5.3018681    -1.0459686    -0.6161227
H           5.5100047    -1.7692350    -1.3998481
O           2.1203391     1.6167647     1.7836761
32
424_C15H15NO_0-14-15-26 (-90,) energy =    -710.5909223
C           0.5011800     0.5824004    -0.7656600
N           1.0081223     1.8495548    -1.1787910
C           0.5571118     2.9824306    -0.3607115
H           0.6620770     2.7492334     0.6992374
H          -0.4969916     3.2445697    -0.5629980
H           1.1779364     3.8563575    -0.5879108
C           0.9150630     2.1461368    -2.6016619
H           1.2756281     1.2943134    -3.1853596
H           1.5535031     3.0090407    -2.8212619
H          -0.1073204     2.3964659    -2.9399210
C          -0.5269374    -0.0880639    -1.4452453
H          -0.9785179     0.3670025    -2.3210309
C          -0.9867623    -1.3296433    -1.0030543
H          -1.7849911    -1.8292202    -1.5459494
C           1.0792954    -0.0369086     0.3619138
C           2.2310210     0.6115276     1.1006578
C          -0.4387670    -1.9178981     0.1355252
H          -0.7999714    -2.8797499     0.4880973
C           6.2732343    -0.2524054    -0.0608731
H           7.3010188    -0.4645435    -0.3439090
C           6.0067807     0.5936850     1.0209113
H           6.8266259     1.0391812     1.5779569
C           0.5931991    -1.2661691     0.8134843
H           1.0444954    -1.7266427     1.6888631
C           4.6916681     0.8648286     1.3832428
H           4.4593988     1.5182134     2.2179705
C           3.6263681     0.2925226     0.6689880
C           3.9010234    -0.5555481    -0.4137906
H           3.0822970    -1.0024050    -0.9683853
C           5.2202396    -0.8252266    -0.7767306
H           5.4266017    -1.4828147    -1.6167914
O           2.0177216     1.3387577     2.0624946
32
424_C15H15NO_0-14-15-26 (-75,) energy =    -710.5915060
C           0.5248232     0.5033545    -0.7607858
N           1.1292503     1.7136067    -1.1977353
C           0.8334174     2.8959386    -0.3807810
H           0.9088428     2.6598331     0.6809511
H          -0.1799264     3.2892627    -0.5773377
H           1.5587445     3.6837958    -0.6124988
C           1.0450377     2.0108125    -2.6198169
H           1.3178545     1.1274987    -3.2040973
H           1.7571287     2.8100964    -2.8526667
H           0.0448065     2.3519421    -2.9442336
C          -0.5134158    -0.1261209    -1.4657715
H          -0.8910767     0.3202961    -2.3798036
C          -1.0842664    -1.3096053    -0.9955069
H          -1.8868673    -1.7767760    -1.5604302
C           1.0003644    -0.1055384     0.4216164
C           2.1541461     0.4676686     1.2124563
C          -0.6484046    -1.8759663     0.2014393
H          -1.1015604    -2.7881118     0.5787593
C           6.1920824     0.0149034    -0.1781493
H           7.2192601    -0.0988896    -0.5149896
C           5.9152099     0.7270786     0.9931637
H           6.7264895     1.1674064     1.5666540
C           0.3859846    -1.2624705     0.9087702
H           0.7467563    -1.6976930     1.8369334
C           4.6004470     0.8700007     1.4253232
H           4.3605299     1.4133437     2.3335505
C           3.5462602     0.3063634     0.6890322
C           3.8315683    -0.4073236    -0.4839382
H           3.0216318    -0.8514693    -1.0532908
C           5.1495995    -0.5524845    -0.9142409
H           5.3641432    -1.1092496    -1.8224271
O           1.9477648     0.9890309     2.3021810
32
424_C15H15NO_0-14-15-26 (-60,) energy =    -710.5921666
C           0.5429649     0.4337150    -0.7502422
N           1.2196017     1.5837463    -1.2194777
C           1.1514133     2.7838960    -0.3829836
H           1.2145216     2.5277980     0.6745379
H           0.2112763     3.3408649    -0.5427379
H           1.9895404     3.4461107    -0.6267779
C           1.1012932     1.9027779    -2.6325834
H           1.2700303     1.0070153    -3.2367693
H           1.8709615     2.6385257    -2.8896138
H           0.1217763     2.3340511    -2.9088454
C          -0.5156636    -0.1533623    -1.4652071
H          -0.8415881     0.2862117    -2.4016006
C          -1.1806181    -1.2770087    -0.9746948
H          -1.9954490    -1.7065343    -1.5520121
C           0.9408478    -0.1672898     0.4698572
C           2.1112476     0.3034150     1.2960807
C          -0.8283252    -1.8257311     0.2575693
H          -1.3581003    -2.6877933     0.6520224
C           6.1209130     0.2814250    -0.2515253
H           7.1418449     0.2711881    -0.6245425
C           5.8276404     0.9000443     0.9673394
H           6.6195046     1.3715042     1.5432536
C           0.2211555    -1.2557652     0.9758479
H           0.5205956    -1.6702335     1.9341830
C           4.5208140     0.9065342     1.4465384
H           4.2723816     1.3674215     2.3970841
C           3.4891901     0.3078152     0.7067783
C           3.7916424    -0.3114381    -0.5145648
H           3.0020205    -0.7887875    -1.0851526
C           5.1023664    -0.3276953    -0.9882760
H           5.3302844    -0.8163210    -1.9317907
O           1.9401840     0.6030562     2.4732028
32
424_C15H15NO_0-14-15-26 (-45,) energy =    -710.5919214
C           0.5622923     0.3539120    -0.7571670
N           1.2832435     1.4649292    -1.2370772
C           1.3559223     2.6565967    -0.3924656
H           1.3574924     2.3877184     0.6635446
H           0.4985740     3.3295560    -0.5684038
H           2.2780834     3.2080726    -0.6073296
C           1.1724080     1.7986758    -2.6461456
H           1.2827769     0.8991823    -3.2581465
H           1.9826236     2.4885854    -2.9054741
H           0.2178548     2.2890272    -2.9101181
C          -0.5151711    -0.1909114    -1.4805477
H          -0.8009980     0.2480494    -2.4299421
C          -1.2550839    -1.2607528    -0.9802875
H          -2.0823067    -1.6536719    -1.5661341
C           0.9034640    -0.2430433     0.4861851
C           2.1085436     0.1070002     1.3180593
C          -0.9633769    -1.7992999     0.2727474
H          -1.5515674    -2.6184262     0.6756024
C           6.0638385     0.5017568    -0.3249170
H           7.0727457     0.5916254    -0.7193975
C           5.7469519     1.0523052     0.9197515
H           6.5085340     1.5712137     1.4957218
C           0.1060584    -1.2781034     0.9951934
H           0.3699952    -1.6889012     1.9648469
C           4.4562208     0.9265081     1.4275000
H           4.1962321     1.3247642     2.4029978
C           3.4608728     0.2716999     0.6866872
C           3.7873993    -0.2796786    -0.5606533
H           3.0294045    -0.8070572    -1.1300851
C           5.0842805    -0.1710851    -1.0594940
H           5.3321014    -0.6120843    -2.0213362
O           1.9959182     0.1956506     2.5370711
32
424_C15H15NO_0-14-15-26 (-30,) energy =    -710.5902054
C           0.5753210     0.3256351    -0.7499111
N           1.3288003     1.3988433    -1.2524831
C           1.5054977     2.5860292    -0.4193301
H           1.4298711     2.3321182     0.6375100
H           0.7351829     3.3449022    -0.6401040
H           2.4914622     3.0302276    -0.5969931
C           1.2321976     1.7219851    -2.6641384
H           1.2829238     0.8111107    -3.2668743
H           2.0833130     2.3560533    -2.9354062
H           0.3089765     2.2684560    -2.9285471
C          -0.5321404    -0.1763210    -1.4615398
H          -0.7937046     0.2581479    -2.4198295
C          -1.3357020    -1.1844694    -0.9358408
H          -2.1854136    -1.5408192    -1.5129633
C           0.8874576    -0.2614057     0.5095976
C           2.1428885    -0.0450834     1.3109609
C          -1.0776650    -1.7063418     0.3324484
H          -1.7140945    -2.4776723     0.7557203
C           6.0266886     0.7190030    -0.3770575
H           7.0197553     0.8983701    -0.7810122
C           5.6888064     1.2003708     0.8900937
H           6.4179405     1.7542359     1.4754372
C           0.0263434    -1.2394024     1.0361430
H           0.2780231    -1.6511453     2.0081580
C           4.4197576     0.9567879     1.4113363
H           4.1512449     1.2945986     2.4072162
C           3.4628568     0.2605159     0.6588321
C           3.8111680    -0.2229265    -0.6104432
H           3.0869153    -0.7885166    -1.1873294
C           5.0893101    -0.0023451    -1.1209350
H           5.3555518    -0.3942858    -2.0990113
O           2.1053072    -0.1563816     2.5333618
32
424_C15H15NO_0-14-15-26 (-15,) energy =    -710.5872468
C           0.5754212     0.2811877    -0.7413123
N           1.3684676     1.3080053    -1.2768727
C           1.6137918     2.4992662    -0.4674152
H           1.5429149     2.2645763     0.5938922
H           0.8751362     3.2882808    -0.6906467
H           2.6164067     2.8937436    -0.6668024
C           1.2636878     1.6124327    -2.6921227
H           1.2582586     0.6905781    -3.2801530
H           2.1410223     2.1983080    -2.9873869
H           0.3649950     2.2007139    -2.9509477
C          -0.5800533    -0.1549109    -1.4208777
H          -0.8322828     0.2846702    -2.3792046
C          -1.4421629    -1.0933572    -0.8629849
H          -2.3284723    -1.3955024    -1.4155680
C           0.8815104    -0.3108611     0.5206564
C           2.1858270    -0.2399779     1.2725669
C          -1.1914868    -1.6139233     0.4077742
H          -1.8704915    -2.3316491     0.8583388
C           6.0075906     0.9070477    -0.3430082
H           6.9864129     1.1810511    -0.7281105
C           5.6328051     1.2840669     0.9484650
H           6.3187976     1.8505221     1.5726206
C          -0.0365521    -1.2247458     1.0728056
H           0.2184503    -1.6533211     2.0360986
C           4.3832226     0.9176530     1.4458791
H           4.0930604     1.1709188     2.4606885
C           3.4786312     0.2073789     0.6442668
C           3.8653550    -0.1745062    -0.6480821
H           3.1854382    -0.7545609    -1.2630321
C           5.1267272     0.1654973    -1.1347779
H           5.4242890    -0.1499006    -2.1314027
O           2.2131371    -0.5582248     2.4588557
32
424_C15H15NO_0-14-15-26 (0,) energy =    -710.5835670
C           0.4946077     0.5282986    -0.4044781
N           1.3547893     1.4813191    -0.9840546
C           0.9563335     2.8778720    -0.9624511
H           0.5751571     3.1479497     0.0261899
H           0.1897635     3.1321031    -1.7168053
H           1.8392756     3.4933384    -1.1680541
C           2.0115938     1.1179354    -2.2388711
H           2.2327982     0.0517539    -2.2614297
H           2.9553784     1.6653286    -2.3368482
H           1.3739618     1.3554812    -3.1083917
C          -0.8767548     0.8148569    -0.2555533
H          -1.2503677     1.7875920    -0.5547688
C          -1.7765121    -0.1374672     0.2111867
H          -2.8289383     0.1207956     0.2997534
C           0.9679126    -0.7582490    -0.0046710
C           2.3964906    -1.1903373     0.2344285
C          -1.3341179    -1.4223579     0.5291968
H          -2.0303004    -2.1800055     0.8766189
C           5.9817603     1.1763023    -0.0692471
H           6.9030843     1.7496233    -0.1313691
C           4.8877041     1.6835968     0.6367969
H           4.9616826     2.6452786     1.1378725
C           0.0207771    -1.7061756     0.4320481
H           0.4048342    -2.6734064     0.7364219
C           3.6990819     0.9576870     0.7043495
H           2.8529505     1.3545410     1.2544848
C           3.5988217    -0.2944290     0.0824972
C           4.7150728    -0.8159430    -0.5860521
H           4.6490760    -1.8072456    -1.0236929
C           5.8924661    -0.0750896    -0.6818864
H           6.7443941    -0.4817028    -1.2203006
O           2.6224187    -2.3610994     0.5296762
32
424_C15H15NO_0-14-15-26 (15,) energy =    -710.5872477
C           0.5300881     0.5683331    -0.4535562
N           1.3742854     1.4706470    -1.1202642
C           1.0318094     2.8811552    -1.1238724
H           0.7269403     3.2010079    -0.1236817
H           0.2271153     3.1376161    -1.8362480
H           1.9216177     3.4539832    -1.4071435
C           2.0017869     1.0474691    -2.3700219
H           2.1256126    -0.0344703    -2.3916961
H           2.9901989     1.5091034    -2.4723108
H           1.3873322     1.3366630    -3.2400655
C          -0.8046473     0.9194335    -0.1672723
H          -1.1650301     1.9063296    -0.4344738
C          -1.6926124     0.0081508     0.3953056
H          -2.7168826     0.3157136     0.5913938
C           0.9771558    -0.7387865    -0.0956079
C           2.3998774    -1.2308122    -0.0187964
C          -1.2829215    -1.2974077     0.6711519
H          -1.9756726    -2.0202357     1.0916444
C           5.9429431     1.2086433     0.1481997
H           6.8525692     1.8011047     0.2035389
C           4.7905620     1.6322434     0.8155156
H           4.8062076     2.5473361     1.4017066
C           0.0392992    -1.6470323     0.4318024
H           0.4054444    -2.6353870     0.6881520
C           3.6186398     0.8816399     0.7340047
H           2.7271560     1.2107135     1.2573449
C           3.5922880    -0.3122056    -0.0005837
C           4.7635227    -0.7496010    -0.6348546
H           4.7470608    -1.6969390    -1.1644536
C           5.9268418     0.0163473    -0.5788955
H           6.8237516    -0.3236021    -1.0897781
O           2.6152078    -2.4393260     0.0300458
32
424_C15H15NO_0-14-15-26 (30,) energy =    -710.5902054
C           0.5419006     0.5770191    -0.4865345
N           1.3636601     1.4528946    -1.2155159
C           1.0332816     2.8661676    -1.2362042
H           0.7832475     3.2125579    -0.2296938
H           0.1945847     3.1127184    -1.9120478
H           1.9115155     3.4241594    -1.5787700
C           1.9246747     0.9940277    -2.4843117
H           2.0441425    -0.0889123    -2.4862539
H           2.9081330     1.4487579    -2.6482950
H           1.2694074     1.2633008    -3.3307023
C          -0.7659751     0.9493529    -0.1188241
H          -1.1365600     1.9331011    -0.3841328
C          -1.6172797     0.0605785     0.5323912
H          -2.6218560     0.3834393     0.7943942
C           0.9956025    -0.7251383    -0.1305645
C           2.4095398    -1.2343159    -0.2148645
C          -1.2008086    -1.2413923     0.8128294
H          -1.8681810    -1.9449418     1.3014965
C           5.9247881     1.1848774     0.3388566
H           6.8265169     1.7728460     0.4895253
C           4.7329262     1.5602809     0.9640692
H           4.7086964     2.4337563     1.6102934
C           0.0953981    -1.6160177     0.4785244
H           0.4637394    -2.6085647     0.7169779
C           3.5723956     0.8151051     0.7622499
H           2.6494602     1.1051442     1.2534335
C           3.5963209    -0.3253785    -0.0531393
C           4.8040327    -0.7123327    -0.6517819
H           4.8195389    -1.6170709    -1.2511070
C           5.9579563     0.0476477    -0.4717692
H           6.8850736    -0.2526206    -0.9527393
O           2.6093554    -2.4340729    -0.3842341
32
424_C15H15NO_0-14-15-26 (45,) energy =    -710.5919210
C           0.5513586     0.5798288    -0.5176642
N           1.3448571     1.4426150    -1.2986378
C           0.9987135     2.8525270    -1.3321523
H           0.8038812     3.2189090    -0.3204353
H           0.1193373     3.0763778    -1.9629748
H           1.8491330     3.4106304    -1.7384508
C           1.8194851     0.9601362    -2.5948805
H           1.9911884    -0.1157234    -2.5724074
H           2.7638364     1.4530039    -2.8519201
H           1.0886230     1.1687472    -3.3956271
C          -0.7380604     0.9512597    -0.0928341
H          -1.1342936     1.9224318    -0.3677419
C          -1.5382578     0.0766658     0.6399935
H          -2.5301259     0.3973729     0.9486128
C           1.0349410    -0.7029525    -0.1445720
C           2.4341450    -1.2069749    -0.3788077
C          -1.0892107    -1.2084056     0.9438204
H          -1.7185705    -1.9003398     1.4955078
C           5.9471362     1.1050729     0.5230511
H           6.8468357     1.6682444     0.7574711
C           4.7253676     1.4705017     1.0936712
H           4.6747806     2.3126820     1.7786623
C           0.1879972    -1.5864124     0.5399819
H           0.5733991    -2.5729791     0.7783262
C           3.5687791     0.7557351     0.7870993
H           2.6220436     1.0376421     1.2356284
C           3.6256098    -0.3424599    -0.0831058
C           4.8606027    -0.7157788    -0.6342917
H           4.8946470    -1.5838021    -1.2848061
C           6.0126054     0.0107656    -0.3435158
H           6.9626359    -0.2794090    -0.7842718
O           2.6045248    -2.3628140    -0.7550834
32
424_C15H15NO_0-14-15-26 (60,) energy =    -710.5921667
C           0.5580340     0.6011253    -0.5822335
N           1.3126754     1.4552479    -1.4194007
C           0.9512211     2.8627955    -1.4450359
H           0.8197530     3.2370195    -0.4259265
H           0.0300928     3.0732063    -2.0186181
H           1.7674675     3.4239599    -1.9126267
C           1.6490712     0.9550337    -2.7540385
H           1.8861524    -0.1083596    -2.7249017
H           2.5247939     1.4921204    -3.1349971
H           0.8171382     1.0986676    -3.4659389
C          -0.7182856     0.9551999    -0.1105698
H          -1.1545743     1.9050877    -0.3998375
C          -1.4527349     0.0896359     0.6997898
H          -2.4369209     0.3933915     1.0474524
C           1.0953407    -0.6483427    -0.1841798
C           2.4817548    -1.1199021    -0.5438986
C          -0.9471616    -1.1657043     1.0349801
H          -1.5253538    -1.8506167     1.6481860
C           5.9916179     1.0149300     0.7195878
H           6.8889194     1.5373891     1.0412355
C           4.7451988     1.3918355     1.2252597
H           4.6722875     2.2037773     1.9438549
C           0.3178736    -1.5288208     0.5768661
H           0.7377919    -2.4976660     0.8315831
C           3.5925865     0.7268868     0.8105844
H           2.6255691     1.0170970     1.2075823
C           3.6778603    -0.3286419    -0.1087911
C           4.9355834    -0.7089212    -0.6022669
H           4.9855360    -1.5379542    -1.3007612
C           6.0850660    -0.0369262    -0.1964790
H           7.0543442    -0.3336367    -0.5882648
O           2.6257423    -2.1929115    -1.1206305
32
424_C15H15NO_0-14-15-26 (75,) energy =    -710.5915060
C           0.5525851     0.6184980    -0.6651137
N           1.2589393     1.4461415    -1.5799811
C           0.9245233     2.8624206    -1.5736285
H           0.8981568     3.2366601    -0.5463469
H          -0.0426111     3.0930227    -2.0568981
H           1.7030818     3.4079016    -2.1180955
C           1.3687473     0.9235461    -2.9466044
H           1.6273629    -0.1355522    -2.9349106
H           2.1586774     1.4668659    -3.4770073
H           0.4266102     1.0441415    -3.5105495
C          -0.7107681     0.9556544    -0.1538685
H          -1.1889342     1.8781254    -0.4665723
C          -1.3729294     0.1088897     0.7361797
H          -2.3503176     0.3936079     1.1172317
C           1.1530554    -0.5850160    -0.2339191
C           2.5355328    -0.9990423    -0.6839755
C          -0.7995478    -1.1041107     1.1147670
H          -1.3193290    -1.7730815     1.7944991
C           6.0245653     0.8781620     0.9744014
H           6.9160108     1.3398337     1.3911670
C           4.7616454     1.2598290     1.4325177
H           4.6689517     2.0166939     2.2067092
C           0.4577065    -1.4483175     0.6172650
H           0.9249189    -2.3841324     0.9122746
C           3.6173654     0.6688870     0.8988086
H           2.6363113     0.9624677     1.2576512
C           3.7279033    -0.3114556    -0.0978648
C           5.0015296    -0.6921987    -0.5496763
H           5.0679984    -1.4567338    -1.3169505
C           6.1427559    -0.0995316    -0.0185190
H           7.1253373    -0.3977479    -0.3742714
O           2.6686868    -1.9364909    -1.4620290
32
424_C15H15NO_0-14-15-26 (90,) energy =    -710.5909224
C           0.5436370     0.6392169    -0.7435653
N           1.1717522     1.4426393    -1.7402259
C           0.8285020     2.8580307    -1.7351169
H           0.8923015     3.2544128    -0.7177068
H          -0.1795368     3.0747257    -2.1341807
H           1.5508188     3.3950553    -2.3598539
C           1.1232891     0.8804248    -3.0958232
H           1.4109626    -0.1711819    -3.0798342
H           1.8290420     1.4246235    -3.7334369
H           0.1164222     0.9654256    -3.5427728
C          -0.7119725     0.9430040    -0.1962640
H          -1.2515498     1.8188675    -0.5422820
C          -1.2839543     0.1263179     0.7806501
H          -2.2582883     0.3821074     1.1889718
C           1.2291685    -0.4975692    -0.2671792
C           2.6121501    -0.8428640    -0.7779070
C          -0.6192618    -1.0179679     1.2182558
H          -1.0649213    -1.6610535     1.9717568
C           6.0795959     0.7114204     1.2212316
H           6.9651889     1.0968995     1.7198150
C           4.8100700     1.0708574     1.6778261
H           4.7059528     1.7357379     2.5309383
C           0.6362673    -1.3243825     0.6899706
H           1.1745693    -2.2012767     1.0410802
C           3.6727714     0.5757608     1.0404647
H           2.6857472     0.8528088     1.3962691
C           3.7987410    -0.2825266    -0.0615829
C           5.0796329    -0.6385293    -0.5145233
H           5.1569300    -1.3037098    -1.3684474
C           6.2128644    -0.1450766     0.1231570
H           7.2011720    -0.4247248    -0.2317485
O           2.7486260    -1.6068285    -1.7251199
32
424_C15H15NO_0-14-15-26 (105,) energy =    -710.5906573
C           0.5148691     0.6816790    -0.8327868
N           1.0393568     1.4858044    -1.8877762
C           0.6057620     2.8765854    -1.9055978
H           0.6931403     3.3089292    -0.9046470
H          -0.4319164     3.0188082    -2.2601633
H           1.2614131     3.4370178    -2.5814123
C           0.9487861     0.8777620    -3.2214775
H           1.3114568    -0.1492544    -3.1884685
H           1.5771757     1.4474663    -3.9154402
H          -0.0863845     0.8832303    -3.6085767
C          -0.7428241     0.9202620    -0.2575256
H          -1.3591411     1.7290452    -0.6369277
C          -1.2204106     0.1303381     0.7890248
H          -2.2001427     0.3365521     1.2122524
C           1.3027363    -0.3676202    -0.3095596
C           2.6876621    -0.6591778    -0.8450902
C          -0.4505594    -0.9214006     1.2818286
H          -0.8176525    -1.5427449     2.0936582
C           6.1470790     0.4755359     1.4350652
H           7.0309473     0.7573375     2.0014506
C           4.8826140     0.8746242     1.8713805
H           4.7803356     1.4691723     2.7750988
C           0.8110338    -1.1580603     0.7336959
H           1.4327666    -1.9564783     1.1315277
C           3.7469302     0.5108541     1.1477363
H           2.7646009     0.8224977     1.4869407
C           3.8698660    -0.2533785    -0.0222251
C           5.1471068    -0.6451730    -0.4568545
H           5.2233484    -1.2309755    -1.3670973
C           6.2777640    -0.2857374     0.2684921
H           7.2623635    -0.5953177    -0.0715024
O           2.8376172    -1.2529022    -1.9052102
32
424_C15H15NO_0-14-15-26 (120,) energy =    -710.5905720
C           0.4906942     0.7327293    -0.9129139
N           0.9070548     1.5356740    -2.0149109
C           0.3730747     2.8911064    -2.0499185
H           0.4661576     3.3567859    -1.0645524
H          -0.6845101     2.9511144    -2.3678379
H           0.9614670     3.4772911    -2.7648557
C           0.7988100     0.8836809    -3.3258274
H           1.2466282    -0.1077629    -3.2819348
H           1.3466950     1.4797119    -4.0645464
H          -0.2515785     0.7998059    -3.6601466
C          -0.7715392     0.8918826    -0.3188409
H          -1.4613536     1.6227629    -0.7284185
C          -1.1641813     0.1246335     0.7777565
H          -2.1525557     0.2681484     1.2068859
C           1.3804445    -0.2133115    -0.3467483
C           2.7698880    -0.4421779    -0.8889894
C          -0.2968045    -0.8252003     1.3133414
H          -0.5942052    -1.4309125     2.1645170
C           6.2079774     0.2316429     1.6058374
H           7.0872400     0.3994557     2.2223877
C           4.9641128     0.7114194     2.0188926
H           4.8735206     1.2581329     2.9535601
C           0.9722275    -0.9756797     0.7552876
H           1.6677164    -1.6916840     1.1854697
C           3.8334267     0.4917308     1.2316624
H           2.8691596     0.8707849     1.5532225
C           3.9402192    -0.2058186     0.0188544
C           5.1990777    -0.6735491    -0.3938675
H           5.2666176    -1.1995201    -1.3405381
C           6.3236602    -0.4619639     0.3964985
H           7.2921854    -0.8338622     0.0731946
O           2.9499834    -0.8505234    -2.0292218
32
424_C15H15NO_0-14-15-26 (135,) energy =    -710.5901955
C           0.4813346     0.7811773    -0.9673808
N           0.7997970     1.5711060    -2.1078400
C           0.1550947     2.8763255    -2.1773394
H           0.2257956     3.3824291    -1.2103032
H          -0.9087807     2.8399020    -2.4775443
H           0.6822239     3.4827817    -2.9226251
C           0.7185066     0.8667060    -3.3925718
H           1.2544409    -0.0777316    -3.3274479
H           1.1967165     1.4808864    -4.1639520
H          -0.3286399     0.6832402    -3.6959857
C          -0.7869880     0.8556321    -0.3679657
H          -1.5401290     1.5010764    -0.8081295
C          -1.1111089     0.1077793     0.7626900
H          -2.1091201     0.1815989     1.1872985
C           1.4603463    -0.0499278    -0.3564868
C           2.8587788    -0.1901361    -0.8903093
C          -0.1636912    -0.7389863     1.3346006
H          -0.4073395    -1.3357871     2.2087664
C           6.2616445    -0.0068195     1.7419651
H           7.1331703     0.0403939     2.3896933
C           5.0566290     0.5670452     2.1500797
H           4.9896894     1.0697646     3.1111171
C           1.1125056    -0.7979879     0.7794995
H           1.8635160    -1.4375190     1.2337924
C           3.9343009     0.4996211     1.3238567
H           3.0020976     0.9546976     1.6419896
C           4.0108808    -0.1354110     0.0747639
C           5.2339260    -0.6916075    -0.3345705
H           5.2851609    -1.1602332    -1.3119267
C           6.3481675    -0.6374021     0.4966681
H           7.2865213    -1.0815769     0.1755293
O           3.0825890    -0.3835883    -2.0790262
32
424_C15H15NO_0-14-15-26 (150,) energy =    -710.5890659
C           0.4568065     0.8549885    -0.9657469
N           0.6868996     1.6204320    -2.1373848
C          -0.0989019     2.8388689    -2.2787930
H          -0.1069139     3.3935543    -1.3363615
H          -1.1446581     2.6683160    -2.5957569
H           0.3738817     3.4661085    -3.0430663
C           0.7274758     0.8635792    -3.3923489
H           1.3567808    -0.0150455    -3.2754512
H           1.1673419     1.4933736    -4.1736021
H          -0.2844462     0.5605785    -3.7175584
C          -0.8134044     0.8479446    -0.3622614
H          -1.6179876     1.4084077    -0.8263489
C          -1.0793805     0.1159160     0.7920062
H          -2.0822643     0.1215842     1.2116581
C           1.5089147     0.1387661    -0.3171883
C           2.9175405     0.1162537    -0.8285316
C          -0.0699996    -0.6384490     1.3872509
H          -0.2689754    -1.2332567     2.2738799
C           6.2993552    -0.2511244     1.8208981
H           7.1675181    -0.3393083     2.4688252
C           5.1532817     0.4051701     2.2723634
H           5.1305399     0.8397980     3.2681058
C           1.2066648    -0.6099391     0.8349850
H           1.9975430    -1.1861244     1.3030879
C           4.0340788     0.5088257     1.4454577
H           3.1494352     1.0289830     1.7990252
C           4.0546136    -0.0331177     0.1510229
C           5.2226784    -0.6662417    -0.3024696
H           5.2401691    -1.0541364    -1.3157896
C           6.3312454    -0.7877934     0.5304008
H           7.2238792    -1.2945115     0.1734212
O           3.1864002     0.1780725    -2.0231494
32
424_C15H15NO_0-14-15-26 (165,) energy =    -710.5870407
C           0.4244207     0.9232215    -0.9739322
N           0.5927575     1.6408409    -2.1747593
C          -0.3449481     2.7196429    -2.4466374
H          -0.4931436     3.3268612    -1.5495951
H          -1.3320171     2.3777251    -2.8091805
H           0.0850118     3.3583705    -3.2262985
C           0.8817680     0.8635920    -3.3811300
H           1.5827345     0.0636532    -3.1599944
H           1.3442762     1.5154558    -4.1298561
H          -0.0425920     0.4362457    -3.8092440
C          -0.8506134     0.8474197    -0.3795024
H          -1.6899755     1.3214622    -0.8759220
C          -1.0792596     0.1411429     0.7966402
H          -2.0864144     0.0895031     1.2028440
C           1.5238530     0.3190711    -0.2778145
C           2.9429001     0.4352811    -0.7340253
C          -0.0293525    -0.5269846     1.4251642
H          -0.1990022    -1.1121141     2.3241076
C           6.3140083    -0.5031737     1.7930860
H           7.1813581    -0.7305318     2.4072539
C           5.2485668     0.2224655     2.3278735
H           5.2886500     0.5732622     3.3556909
C           1.2473047    -0.4263195     0.8858549
H           2.0636801    -0.9418609     1.3773487
C           4.1287271     0.5032635     1.5436352
H           3.3076060     1.0764626     1.9637254
C           4.0688397     0.0738094     0.2091135
C           5.1606419    -0.6250359    -0.3278802
H           5.1276117    -0.9208935    -1.3716671
C           6.2666222    -0.9277179     0.4624369
H           7.0973901    -1.4858410     0.0389035
O           3.2550507     0.7809636    -1.8696391
32
424_C15H15NO_0-14-15-26 (180,) energy =    -710.5880419
C           0.3518049     0.9143071    -0.9580227
N           0.4916456     1.6828998    -2.0968087
C          -0.6004393     2.5208348    -2.5590798
H          -1.0886087     3.0154037    -1.7152923
H          -1.3628638     1.9669627    -3.1330774
H          -0.1898327     3.2995768    -3.2092390
C           1.4988065     1.3943123    -3.1088180
H           1.9977676     0.4495347    -2.8855695
H           2.2611436     2.1774030    -3.1635068
H           1.0052091     1.2915778    -4.0853437
C          -0.9465310     0.6333371    -0.4671450
H          -1.8083530     1.0478505    -0.9766711
C          -1.1523001    -0.2160464     0.6089000
H          -2.1691939    -0.4207727     0.9350364
C           1.4758357     0.3507883    -0.2594638
C           2.8449532     0.9352605    -0.3711298
C          -0.0698690    -0.8222670     1.2528120
H          -0.2240845    -1.4896992     2.0950577
C           6.2917964    -0.7059516     1.6391703
H           7.1769230    -1.1003198     2.1313190
C           6.0134378     0.6627100     1.6895094
H           6.6820309     1.3353359     2.2203257
C           1.2132186    -0.5182331     0.8241040
H           2.0520031    -0.9163243     1.3814216
C           4.8858086     1.1706495     1.0485720
H           4.6768926     2.2357423     1.0525147
C           4.0009354     0.3135785     0.3792063
C           4.2921714    -1.0575015     0.3257883
H           3.6322869    -1.7276203    -0.2186435
C           5.4351173    -1.5632893     0.9468218
H           5.6566483    -2.6256419     0.8875460
O           3.0606720     1.9980291    -0.9508995
