32
424_C15H15NO_10-0-1-2 (-165,) energy =    -710.5881371
C           0.5360159     0.3496621    -0.8824401
N           1.0797763     1.3152943    -1.7170482
C           2.2841291     1.1265912    -2.5105734
H           3.1703125     1.5958545    -2.0652017
H           2.1282875     1.5572472    -3.5073731
H           2.4862451     0.0630571    -2.6497599
C           0.4047878     2.5914557    -1.8877327
H          -0.4999794     2.5123988    -2.5103028
H           1.0896389     3.2898729    -2.3739520
H           0.1189658     3.0248449    -0.9220868
C          -0.7903988     0.5114372    -0.4097795
H          -1.3515896     1.3991042    -0.6743175
C          -1.4299281    -0.4798115     0.3253768
H          -2.4549886    -0.3143204     0.6479066
C           1.2364205    -0.8189265    -0.4557424
C           2.7161988    -1.0708460    -0.5569507
C          -0.7826555    -1.6789411     0.6266065
H          -1.2871560    -2.4652482     1.1794284
C           5.5600735     1.6671421     1.1623135
H           6.2908047     2.3433480     1.5984644
C           4.2021147     1.8309069     1.4417486
H           3.8745808     2.6293273     2.1022380
C           0.5408091    -1.8282727     0.2301688
H           1.0932133    -2.7261186     0.4911191
C           3.2621417     0.9656762     0.8806523
H           2.2086841     1.0865867     1.1108456
C           3.6753054    -0.0748907     0.0359540
C           5.0445206    -0.2409630    -0.2273607
H           5.3490915    -1.0635764    -0.8663894
C           5.9801333     0.6277415     0.3260277
H           7.0372915     0.4950750     0.1118305
O           3.1413519    -2.1323170    -1.0009992
32
424_C15H15NO_10-0-1-2 (-150,) energy =    -710.5903600
C           0.5495005     0.3441205    -0.8432929
N           1.1643050     1.3354415    -1.6006440
C           2.2317306     1.0607227    -2.5531050
H           3.1790486     1.5305342    -2.2605382
H           1.9493494     1.4402060    -3.5456778
H           2.3924236    -0.0133779    -2.6521830
C           0.5435266     2.6380576    -1.7525043
H          -0.2653633     2.6479885    -2.5025242
H           1.3064396     3.3552606    -2.0704864
H           0.1359594     2.9877730    -0.7993518
C          -0.8008466     0.4904524    -0.4492102
H          -1.3541105     1.3744050    -0.7442787
C          -1.4673934    -0.5124230     0.2468124
H          -2.5103279    -0.3624460     0.5149879
C           1.2342796    -0.8285086    -0.4110416
C           2.7165798    -1.0679456    -0.4963392
C          -0.8236881    -1.7080772     0.5699247
H          -1.3493113    -2.5020728     1.0913775
C           5.5502037     1.7432436     1.1152763
H           6.2790170     2.4369590     1.5264839
C           4.1965172     1.8860326     1.4265191
H           3.8711925     2.6856857     2.0866246
C           0.5169737    -1.8503854     0.2306783
H           1.0602530    -2.7511125     0.5004563
C           3.2587015     0.9997231     0.8966365
H           2.2091564     1.1052564     1.1501684
C           3.6695896    -0.0434880     0.0542007
C           5.0345941    -0.1886282    -0.2404985
H           5.3385386    -1.0140043    -0.8762610
C           5.9682537     0.7028670     0.2797429
H           7.0219941     0.5862237     0.0408488
O           3.1497202    -2.1380396    -0.9119355
32
424_C15H15NO_10-0-1-2 (-135,) energy =    -710.5917235
C           0.5695558     0.3180564    -0.8147767
N           1.2457125     1.3173452    -1.5242882
C           2.1377114     0.9769490    -2.6288393
H           3.0771340     1.5386305    -2.5600254
H           1.6645297     1.2105244    -3.5967742
H           2.3712374    -0.0870626    -2.6280917
C           0.6422305     2.6288663    -1.6637738
H          -0.1504689     2.6668550    -2.4319640
H           1.4211341     3.3425520    -1.9528859
H           0.2200061     2.9594393    -0.7108161
C          -0.7983501     0.4527799    -0.4991653
H          -1.3413449     1.3319167    -0.8273431
C          -1.4877399    -0.5505203     0.1772109
H          -2.5441316    -0.4116946     0.3934026
C           1.2415687    -0.8502622    -0.3608121
C           2.7253830    -1.0866106    -0.4491341
C          -0.8455977    -1.7340112     0.5424923
H          -1.3867286    -2.5276262     1.0487355
C           5.5807659     1.7318868     1.1031389
H           6.3155843     2.4269037     1.5013144
C           4.2332347     1.8688164     1.4440368
H           3.9192476     2.6654500     2.1131933
C           0.5097023    -1.8729639     0.2590350
H           1.0444856    -2.7718131     0.5511703
C           3.2877985     0.9823082     0.9299206
H           2.2427909     1.0850106     1.2024135
C           3.6846256    -0.0574845     0.0766428
C           5.0430808    -0.1970739    -0.2477681
H           5.3371375    -1.0196918    -0.8916989
C           5.9845862     0.6968218     0.2547242
H           7.0332243     0.5853100    -0.0078422
O           3.1513058    -2.1583512    -0.8681516
32
424_C15H15NO_10-0-1-2 (-120,) energy =    -710.5922340
C           0.6230564     0.8733480    -0.3138228
N           1.4331877     1.6668740    -1.1556584
C           1.5968153     1.2284586    -2.5426904
H           0.7576924     1.5633665    -3.1775749
H           1.6518374     0.1418684    -2.6063312
H           2.5249818     1.6435393    -2.9509043
C           1.3026232     3.1106672    -1.0557327
H           1.3126066     3.4191566    -0.0066605
H           0.3857685     3.5057420    -1.5299708
H           2.1601443     3.5736339    -1.5557743
C          -0.5288592     1.3873076     0.3083226
H          -0.8183033     2.4182402     0.1367286
C          -1.3324457     0.5834486     1.1161532
H          -2.2162720     1.0130487     1.5810050
C           0.9671552    -0.4808313    -0.0692987
C           2.2204557    -1.1457070    -0.5774408
C          -1.0276551    -0.7646255     1.2999628
H          -1.6633839    -1.3987782     1.9107213
C           6.1402661     0.3900234     0.2929564
H           7.1389537     0.7576832     0.5143225
C           5.0389089     0.9016491     0.9834205
H           5.1800098     1.6626789     1.7462276
C           0.1128004    -1.2864534     0.6935636
H           0.3797510    -2.3304286     0.8287967
C           3.7566540     0.4366774     0.6967601
H           2.9026889     0.8315753     1.2368781
C           3.5652867    -0.5540567    -0.2770854
C           4.6789744    -1.0734542    -0.9548601
H           4.5163465    -1.8535995    -1.6915030
C           5.9580096    -0.5983046    -0.6785412
H           6.8139095    -1.0004335    -1.2140207
O           2.1390843    -2.2159672    -1.1717244
32
424_C15H15NO_10-0-1-2 (-105,) energy =    -710.5916993
C           0.6383559     0.8760771    -0.3479051
N           1.4442793     1.6308697    -1.2450478
C           1.3174755     1.2489080    -2.6546376
H           0.3690965     1.6024833    -3.0973983
H           1.3614502     0.1635213    -2.7624917
H           2.1471215     1.6847624    -3.2221557
C           1.4210153     3.0770385    -1.0795479
H           1.5439642     3.3347016    -0.0238132
H           0.4955080     3.5536314    -1.4518165
H           2.2600148     3.5071106    -1.6375663
C          -0.5298497     1.3888657     0.2376133
H          -0.8332216     2.4097435     0.0291005
C          -1.3183623     0.5971458     1.0730182
H          -2.2149860     1.0193800     1.5195755
C           1.0038556    -0.4601367    -0.0704201
C           2.2556505    -1.0977427    -0.6202961
C          -0.9785512    -0.7350559     1.3085603
H          -1.6013265    -1.3591534     1.9429277
C           6.1690102     0.3542873     0.3997818
H           7.1656818     0.7033626     0.6572647
C           5.0563648     0.8601225     1.0762983
H           5.1859481     1.5984013     1.8631451
C           0.1720661    -1.2593662     0.7218897
H           0.4543012    -2.2943379     0.8926913
C           3.7771779     0.4178000     0.7443619
H           2.9139846     0.8086606     1.2731720
C           3.5993192    -0.5413620    -0.2630562
C           4.7237183    -1.0538830    -0.9281613
H           4.5703399    -1.8071847    -1.6940860
C           6.0004085    -0.6034036    -0.6044762
H           6.8653044    -0.9999245    -1.1296126
O           2.1630191    -2.1125318    -1.3026138
32
424_C15H15NO_10-0-1-2 (-90,) energy =    -710.5904674
C           0.6400537     0.8637021    -0.4110804
N           1.4181964     1.5796025    -1.3788956
C           1.0116505     1.2918531    -2.7587956
H           0.0134225     1.6993651    -2.9997228
H           0.9948127     0.2114722    -2.9226522
H           1.7414577     1.7340124    -3.4460196
C           1.5446339     3.0138638    -1.1430016
H           1.8414428     3.1927611    -0.1056972
H           0.6215190     3.5863611    -1.3476449
H           2.3292814     3.4091926    -1.7974948
C          -0.5430863     1.3637354     0.1504615
H          -0.8814552     2.3635036    -0.1049750
C          -1.2920388     0.5858570     1.0343130
H          -2.2022589     0.9917331     1.4681394
C           1.0537883    -0.4404566    -0.0834730
C           2.3083134    -1.0293868    -0.6852900
C          -0.8914822    -0.7163519     1.3375699
H          -1.4819653    -1.3288171     2.0131752
C           6.1998395     0.2988426     0.5584347
H           7.1910668     0.6192648     0.8687514
C           5.0687900     0.7914293     1.2131911
H           5.1789388     1.4926244     2.0360609
C           0.2720626    -1.2303856     0.7660728
H           0.5910151    -2.2450460     0.9884034
C           3.7970719     0.3822572     0.8143691
H           2.9187388     0.7604591     1.3277479
C           3.6460641    -0.5261656    -0.2429384
C           4.7881666    -1.0238806    -0.8890943
H           4.6530967    -1.7347197    -1.6978406
C           6.0568714    -0.6102253    -0.4943157
H           6.9363166    -0.9961705    -1.0028934
O           2.2140602    -1.9513681    -1.4864232
32
424_C15H15NO_10-0-1-2 (-75,) energy =    -710.5897520
C           0.2137116     1.0102492    -0.6946064
N           0.3988451     1.9531509    -1.7360133
C          -0.2286087     1.6334220    -3.0160902
H          -0.3436935     2.5511532    -3.6055138
H          -1.2210192     1.2052100    -2.8523360
H           0.3723915     0.9137326    -3.5945688
C           1.6746109     2.6372199    -1.8897942
H           2.1279672     2.7982765    -0.9070663
H           1.4860904     3.6210736    -2.3390984
H           2.3936900     2.1012425    -2.5253177
C          -1.0540723     0.9885334    -0.0839309
H          -1.8101128     1.6718624    -0.4602683
C          -1.3348667     0.1544976     0.9917199
H          -2.3260087     0.1672053     1.4378489
C           1.2187964     0.1568385    -0.1748104
C           2.5101354    -0.0863799    -0.8985509
C          -0.3337803    -0.6639555     1.5231226
H          -0.5377315    -1.3080460     2.3735462
C           6.2646281    -0.3703904     1.1832975
H           7.2229419    -0.4385297     1.6915115
C           5.1899668     0.2696632     1.8026844
H           5.3111763     0.7074404     2.7897864
C           0.9307437    -0.6452427     0.9467105
H           1.7067576    -1.2984690     1.3351342
C           3.9570911     0.3509300     1.1545409
H           3.1254664     0.8553826     1.6361783
C           3.7915534    -0.2006773    -0.1252927
C           4.8842215    -0.8270187    -0.7465621
H           4.7466287    -1.2316481    -1.7440463
C           6.1092141    -0.9196132    -0.0936616
H           6.9462206    -1.4151590    -0.5781363
O           2.5181573    -0.2273473    -2.1180001
32
424_C15H15NO_10-0-1-2 (-60,) energy =    -710.5903779
C           0.2517786     0.9726870    -0.7385080
N           0.4537346     1.9038640    -1.7702327
C          -0.3564134     1.7971313    -2.9768734
H          -0.5141376     2.7919025    -3.4122840
H          -1.3311269     1.3624683    -2.7488047
H           0.1348776     1.1618831    -3.7322316
C           1.7422232     2.5311042    -2.0012762
H           2.2844879     2.6263340    -1.0561718
H           1.5679701     3.5412699    -2.3950262
H           2.3760447     1.9827640    -2.7121813
C          -1.0332193     0.9140559    -0.1572102
H          -1.8082245     1.5651577    -0.5509373
C          -1.3091372     0.0924717     0.9265170
H          -2.3111431     0.0824936     1.3480296
C           1.2691228     0.1538711    -0.1810145
C           2.5690616    -0.0966268    -0.8834265
C          -0.2963408    -0.6838566     1.5003561
H          -0.5007619    -1.3189387     2.3571603
C           6.2975468    -0.3506963     1.2516231
H           7.2494725    -0.4107272     1.7727382
C           5.2186137     0.3089960     1.8423710
H           5.3301513     0.7701120     2.8199836
C           0.9774990    -0.6347712     0.9504766
H           1.7632955    -1.2605561     1.3633704
C           3.9938897     0.3800702     1.1776295
H           3.1586363     0.8995841     1.6366475
C           3.8405348    -0.2017774    -0.0901814
C           4.9375373    -0.8475641    -0.6829096
H           4.8099096    -1.2751132    -1.6721420
C           6.1544113    -0.9299356    -0.0133959
H           6.9946886    -1.4408184    -0.4758748
O           2.5972588    -0.2544735    -2.1009186
32
424_C15H15NO_10-0-1-2 (-45,) energy =    -710.5907569
C           0.2769734     0.9330415    -0.7866953
N           0.4899431     1.8243500    -1.8344544
C          -0.4628297     1.9394978    -2.9268254
H          -0.7964708     2.9784283    -3.0640902
H          -1.3362755     1.3131378    -2.7432779
H          -0.0035239     1.6038887    -3.8693088
C           1.7696172     2.4480286    -2.1037643
H           2.3550043     2.5169024    -1.1828141
H           1.5890641     3.4690307    -2.4660982
H           2.3646235     1.9059189    -2.8514012
C          -1.0124423     0.8674776    -0.2082733
H          -1.8009342     1.4933862    -0.6144050
C          -1.2788944     0.0704362     0.8951471
H          -2.2837634     0.0569362     1.3100218
C           1.3054644     0.1425793    -0.1990612
C           2.6126594    -0.1170223    -0.8826086
C          -0.2597205    -0.6765694     1.4955614
H          -0.4603816    -1.2936778     2.3660271
C           6.3164562    -0.3395879     1.3026372
H           7.2624685    -0.3916361     1.8352995
C           5.2369359     0.3461970     1.8617010
H           5.3420959     0.8357361     2.8261510
C           1.0152530    -0.6210230     0.9495571
H           1.8074373    -1.2265213     1.3798991
C           4.0197190     0.4068595     1.1821137
H           3.1837791     0.9458107     1.6168811
C           3.8741099    -0.2113942    -0.0692317
C           4.9720808    -0.8828211    -0.6305421
H           4.8515837    -1.3378564    -1.6083612
C           6.1812736    -0.9551903     0.0541184
H           7.0218519    -1.4867151    -0.3839824
O           2.6628078    -0.2936271    -2.0970539
32
424_C15H15NO_10-0-1-2 (-30,) energy =    -710.5915798
C           0.2747574     0.8945719    -0.8343034
N           0.4891589     1.7304429    -1.9161369
C          -0.5791533     2.0279455    -2.8539953
H          -1.1014090     2.9723274    -2.6286160
H          -1.3126375     1.2183019    -2.8675566
H          -0.1576493     2.1099355    -3.8625615
C           1.7540471     2.3846484    -2.1913561
H           2.3579380     2.4348096    -1.2813975
H           1.5568735     3.4139767    -2.5181031
H           2.3407016     1.8675909    -2.9615295
C          -1.0166437     0.8335687    -0.2571291
H          -1.8153865     1.4288673    -0.6864389
C          -1.2763913     0.0695980     0.8718048
H          -2.2826760     0.0586690     1.2835546
C           1.3123572     0.1311835    -0.2182895
C           2.6243130    -0.1386417    -0.8864432
C          -0.2537358    -0.6501109     1.4966336
H          -0.4505710    -1.2443500     2.3836462
C           6.3059162    -0.3582944     1.3390336
H           7.2464102    -0.4091819     1.8814821
C           5.2302636     0.3538028     1.8720303
H           5.3330314     0.8651515     2.8254114
C           1.0216306    -0.6012467     0.9492273
H           1.8157977    -1.1904408     1.3976796
C           4.0197026     0.4131952     1.1804799
H           3.1871888     0.9735359     1.5943312
C           3.8769729    -0.2326995    -0.0570758
C           4.9716279    -0.9295947    -0.5930404
H           4.8545924    -1.4050062    -1.5615332
C           6.1738974    -1.0010639     0.1039709
H           7.0115959    -1.5527171    -0.3144178
O           2.6926766    -0.3224829    -2.0991217
32
424_C15H15NO_10-0-1-2 (-15,) energy =    -710.5919677
C           0.3121733     0.8617429    -0.8932069
N           0.5335751     1.6528579    -2.0056787
C          -0.5855308     2.1395938    -2.7930864
H          -1.0839951     3.0160625    -2.3457860
H          -1.3301954     1.3508395    -2.9333709
H          -0.2193870     2.4268330    -3.7827795
C           1.8086961     2.3017485    -2.2710522
H           2.4099029     2.3467473    -1.3585125
H           1.6244439     3.3326138    -2.5965883
H           2.3938436     1.7776161    -3.0356592
C          -0.9868112     0.7850843    -0.3341546
H          -1.7980018     1.3422926    -0.7873224
C          -1.2451861     0.0502042     0.8151477
H          -2.2574850     0.0308964     1.2115987
C           1.3516513     0.1182186    -0.2503819
C           2.6701055    -0.1675893    -0.8988717
C          -0.2208882    -0.6357896     1.4716464
H          -0.4192209    -1.2088549     2.3720639
C           6.3326264    -0.3146091     1.3649918
H           7.2687665    -0.3479773     1.9162961
C           5.2526187     0.4146054     1.8650532
H           5.3478233     0.9567974     2.8020326
C           1.0581055    -0.5872089     0.9319022
H           1.8548672    -1.1570350     1.4002009
C           4.0478924     0.4512014     1.1617592
H           3.2115074     1.0237892     1.5503290
C           3.9153212    -0.2348440    -0.0551161
C           5.0141749    -0.9490841    -0.5584895
H           4.9053015    -1.4559307    -1.5118887
C           6.2104806    -0.9976290     0.1507530
H           7.0513558    -1.5630616    -0.2420627
O           2.7508025    -0.3879268    -2.1046181
32
424_C15H15NO_10-0-1-2 (0,) energy =    -710.5909755
C           0.3049731     0.8210823    -0.9327266
N           0.5269297     1.5914241    -2.0634044
C          -0.5933824     2.2870695    -2.6795982
H          -0.9942938     3.1001151    -2.0519737
H          -1.4073591     1.5916638    -2.9063327
H          -0.2601335     2.7147903    -3.6274239
C           1.8365343     2.1767458    -2.3404992
H           2.4302948     2.2484375    -1.4228155
H           1.7011535     3.1927723    -2.7242822
H           2.4073806     1.5866849    -3.0645864
C          -1.0008098     0.7194311    -0.3922439
H          -1.8229278     1.2409004    -0.8650584
C          -1.2602630     0.0023715     0.7684716
H          -2.2787091    -0.0311391     1.1477141
C           1.3428365     0.0851621    -0.2746108
C           2.6629276    -0.2286182    -0.9072495
C          -0.2346258    -0.6539126     1.4505436
H          -0.4336353    -1.2127095     2.3596968
C           6.3213612    -0.2574434     1.3672105
H           7.2563384    -0.2620483     1.9214658
C           5.2331027     0.4784358     1.8389290
H           5.3204837     1.0539623     2.7565885
C           1.0468444    -0.6021197     0.9174540
H           1.8459345    -1.1574539     1.3990581
C           4.0301089     0.4786741     1.1318699
H           3.1870493     1.0560218     1.4982957
C           3.9071850    -0.2513314    -0.0602073
C           5.0137880    -0.9731073    -0.5350282
H           4.9112520    -1.5154178    -1.4694123
C           6.2089010    -0.9844362     0.1778096
H           7.0561277    -1.5553746    -0.1927529
O           2.7422923    -0.5116595    -2.0998534
32
424_C15H15NO_10-0-1-2 (15,) energy =    -710.5921799
C           0.5701422     0.5973034    -0.5452884
N           1.3321228     1.4704794    -1.3514167
C           0.9224399     2.8636039    -1.4151227
H           0.7462140     3.2534608    -0.4087539
H           0.0133284     3.0284271    -2.0213123
H           1.7334276     3.4438438    -1.8677323
C           1.7639682     0.9779891    -2.6615767
H           2.0060961    -0.0834787    -2.6233898
H           2.6590712     1.5227883    -2.9813090
H           0.9798110     1.1184630    -3.4259520
C          -0.7079186     0.9489958    -0.0738511
H          -1.1373475     1.9067259    -0.3454405
C          -1.4582906     0.0691954     0.7054526
H          -2.4436169     0.3740710     1.0489298
C           1.0965100    -0.6649357    -0.1650766
C           2.4910032    -1.1413094    -0.4802377
C          -0.9681119    -1.1987221     1.0145070
H          -1.5588180    -1.8947134     1.6026515
C           5.9848010     1.0859312     0.6664301
H           6.8786107     1.6301318     0.9605272
C           4.7427447     1.4474040     1.1936557
H           4.6696903     2.2680679     1.9022627
C           0.3007106    -1.5566729     0.5648569
H           0.7144702    -2.5321258     0.8028972
C           3.5939260     0.7558417     0.8132997
H           2.6306131     1.0346718     1.2269146
C           3.6791026    -0.3127965    -0.0907349
C           4.9331745    -0.6789670    -0.6033977
H           4.9848275    -1.5207870    -1.2863312
C           6.0783646     0.0214442    -0.2347145
H           7.0442961    -0.2638715    -0.6428752
O           2.6537632    -2.2477673    -0.9848098
32
424_C15H15NO_10-0-1-2 (30,) energy =    -710.5917254
C           0.5820344     0.5729440    -0.5487678
N           1.3431621     1.4133250    -1.3988551
C           1.0944826     2.8427079    -1.3269126
H           1.0107534     3.1544986    -0.2821383
H           0.1824006     3.1658053    -1.8623466
H           1.9434162     3.3709835    -1.7755815
C           1.5645300     0.9387557    -2.7630936
H           1.7858258    -0.1299079    -2.7665100
H           2.4199959     1.4677551    -3.1982360
H           0.6858134     1.1091916    -3.4110048
C          -0.7218932     0.9029216    -0.1432548
H          -1.1613935     1.8413425    -0.4662297
C          -1.4675557     0.0333931     0.6521001
H          -2.4720142     0.3160891     0.9568339
C           1.1268123    -0.6632584    -0.1304826
C           2.5267224    -1.1088450    -0.4681698
C          -0.9446711    -1.2057948     1.0234774
H          -1.5307715    -1.8946271     1.6248829
C           5.9866026     1.1433513     0.7271548
H           6.8720786     1.6951258     1.0321134
C           4.7370995     1.4829098     1.2518392
H           4.6500770     2.2945298     1.9692504
C           0.3417166    -1.5515266     0.6147858
H           0.7685379    -2.5110340     0.8920632
C           3.5997406     0.7806225     0.8576889
H           2.6303920     1.0416880     1.2695924
C           3.7029131    -0.2753301    -0.0592842
C           4.9638889    -0.6195077    -0.5696584
H           5.0295458    -1.4506901    -1.2642652
C           6.0980074     0.0908327    -0.1857907
H           7.0696196    -0.1771388    -0.5922226
O           2.6970405    -2.1925823    -1.0169182
32
424_C15H15NO_10-0-1-2 (45,) energy =    -710.5902142
C           0.5848862     0.5693240    -0.6458322
N           1.3327719     1.3425388    -1.5875371
C           1.2905245     2.7866516    -1.4149561
H           1.4657212     3.0371681    -0.3649079
H           0.3387689     3.2535138    -1.7309003
H           2.0912399     3.2373236    -2.0123817
C           1.1782590     0.9124482    -2.9757408
H           1.3246152    -0.1684120    -3.0465294
H           1.9401416     1.4041146    -3.5912755
H           0.1843856     1.1582212    -3.3930075
C          -0.7227925     0.8939720    -0.2576892
H          -1.1867136     1.7987423    -0.6402374
C          -1.4318891     0.0634021     0.6105255
H          -2.4412798     0.3332042     0.9102347
C           1.1656711    -0.6177001    -0.1644873
C           2.5606083    -1.0183329    -0.5841594
C          -0.8594960    -1.1247761     1.0687712
H          -1.4160207    -1.7812622     1.7317812
C           6.0055470     1.0590690     0.9228124
H           6.8862900     1.5708276     1.3020847
C           4.7434775     1.3698550     1.4337691
H           4.6408692     2.1197243     2.2135906
C           0.4308279    -1.4692824     0.6674284
H           0.8835587    -2.3955755     1.0105958
C           3.6127845     0.7156907     0.9464236
H           2.6329280     0.9529329     1.3486997
C           3.7355539    -0.2577462    -0.0553856
C           5.0087723    -0.5715796    -0.5554383
H           5.0867846    -1.3362106    -1.3215364
C           6.1361874     0.0865899    -0.0734765
H           7.1181940    -0.1576051    -0.4698037
O           2.7140221    -1.9936761    -1.3091514
32
424_C15H15NO_10-0-1-2 (60,) energy =    -710.5886022
C           0.5818286     0.5190888    -0.6998940
N           1.3405924     1.2570835    -1.6743140
C           1.5116749     2.6740867    -1.3784519
H           1.8992813     2.7924170    -0.3628140
H           0.5843001     3.2702782    -1.4696052
H           2.2469351     3.0945955    -2.0738553
C           0.9324558     0.9908145    -3.0510894
H           0.9234147    -0.0890767    -3.2243412
H           1.6609240     1.4429012    -3.7338355
H          -0.0673616     1.3925206    -3.2998938
C          -0.7457080     0.8297374    -0.3763292
H          -1.2195102     1.6952338    -0.8322936
C          -1.4597697     0.0365007     0.5218723
H          -2.4862860     0.2917586     0.7718033
C           1.1781457    -0.6181301    -0.1342266
C           2.5790587    -1.0188343    -0.5395993
C          -0.8635504    -1.0962036     1.0809448
H          -1.4211691    -1.7235869     1.7708993
C           5.9972454     1.1116519     0.9532632
H           6.8711617     1.6379230     1.3283649
C           4.7358833     1.3851454     1.4857693
H           4.6268090     2.1191444     2.2796790
C           0.4470898    -1.4292769     0.7415128
H           0.9109546    -2.3207214     1.1549828
C           3.6134800     0.7128098     1.0018884
H           2.6342471     0.9185916     1.4232315
C           3.7453014    -0.2419521    -0.0165654
C           5.0189240    -0.5207945    -0.5360077
H           5.1043254    -1.2729814    -1.3135761
C           6.1367242     0.1566951    -0.0591733
H           7.1188440    -0.0587891    -0.4715549
O           2.7397755    -2.0030125    -1.2483401
32
424_C15H15NO_10-0-1-2 (75,) energy =    -710.5872961
C           0.5722362     0.4720028    -0.8890991
N           1.2799571     1.1861984    -1.9209206
C           1.6680121     2.5422751    -1.5420640
H           2.2164525     2.5198729    -0.5967123
H           0.8105541     3.2326447    -1.4306916
H           2.3330142     2.9509567    -2.3114112
C           0.6466199     1.1213556    -3.2342321
H           0.4337105     0.0781831    -3.4835669
H           1.3421927     1.5183257    -3.9824245
H          -0.2937235     1.6985513    -3.3090220
C          -0.7656648     0.7359016    -0.5682296
H          -1.2958604     1.5254807    -1.0943367
C          -1.4187755    -0.0030040     0.4185305
H          -2.4560974     0.2137020     0.6600225
C           1.2448107    -0.5643725    -0.2236776
C           2.6465735    -0.9488979    -0.6540267
C          -0.7411635    -1.0228325     1.0891311
H          -1.2473116    -1.6048795     1.8544083
C           6.0668226     1.0237139     1.0358512
H           6.9405363     1.5129125     1.4585351
C           4.7988632     1.2910521     1.5548911
H           4.6838665     1.9833083     2.3845419
C           0.5851980    -1.3060701     0.7628908
H           1.1086003    -2.1165598     1.2636666
C           3.6764250     0.6663649     1.0097250
H           2.6907134     0.8666562     1.4188725
C           3.8164718    -0.2341947    -0.0562140
C           5.0967486    -0.5050657    -0.5645984
H           5.1860145    -1.2123573    -1.3828104
C           6.2140883     0.1241579    -0.0256523
H           7.2018595    -0.0847286    -0.4277138
O           2.8003747    -1.8648492    -1.4474371
32
424_C15H15NO_10-0-1-2 (90,) energy =    -710.5872227
C           0.4598448     0.4579368    -1.0796810
N           0.9841132     1.1666087    -2.2072082
C           1.5331994     2.4786559    -1.8705062
H           2.2445060     2.3876244    -1.0447150
H           0.7561996     3.2101258    -1.5782156
H           2.0699603     2.8776477    -2.7385542
C           0.1126855     1.2205536    -3.3740665
H          -0.2709235     0.2202169    -3.5914672
H           0.7009401     1.5563537    -4.2355630
H          -0.7444134     1.9120422    -3.2682964
C          -0.8760570     0.5771553    -0.6722432
H          -1.5533304     1.2066671    -1.2418578
C          -1.3484378    -0.1022898     0.4514000
H          -2.3909548    -0.0030894     0.7426503
C           1.3313991    -0.3509765    -0.3222477
C           2.7431595    -0.6294435    -0.7913197
C          -0.4806799    -0.8893504     1.2074297
H          -0.8403311    -1.4176046     2.0859752
C           6.1199116     0.7179687     1.5065833
H           6.9829387     1.0537042     2.0756300
C           4.8367996     1.1118061     1.8889673
H           4.6981938     1.7550479     2.7537206
C           0.8560698    -1.0006699     0.8234168
H           1.5348548    -1.6228268     1.4015954
C           3.7277198     0.6795067     1.1605758
H           2.7307586     0.9862351     1.4608041
C           3.8952974    -0.1496722     0.0410348
C           5.1914279    -0.5359852    -0.3383484
H           5.3017698    -1.1725123    -1.2103085
C           6.2955852    -0.1075049     0.3904644
H           7.2949753    -0.4129287     0.0923215
O           2.9317213    -1.2725162    -1.8119109
32
424_C15H15NO_10-0-1-2 (105,) energy =    -710.5884747
C           0.4275494     0.4349867    -1.1254673
N           0.8559880     1.1266937    -2.2895038
C           1.6205827     2.3468747    -2.0410483
H           2.4091693     2.1639611    -1.3071965
H           0.9877171     3.1734172    -1.6681321
H           2.0964865     2.6712250    -2.9729190
C          -0.1398767     1.3175358    -3.3331932
H          -0.6755840     0.3811480    -3.5099403
H           0.3743541     1.5976181    -4.2592725
H          -0.8787622     2.1104556    -3.1108774
C          -0.9051043     0.4675271    -0.6868230
H          -1.6413175     1.0244168    -1.2571522
C          -1.3046603    -0.2065357     0.4682361
H          -2.3471878    -0.1726413     0.7743190
C           1.3750096    -0.2735501    -0.3466909
C           2.7952441    -0.4842181    -0.8174621
C          -0.3699955    -0.8965790     1.2365143
H          -0.6720304    -1.4195998     2.1392675
C           6.1326190     0.6455096     1.6555397
H           6.9864693     0.9279497     2.2658801
C           4.8540043     1.0881170     1.9973405
H           4.7100627     1.7187479     2.8704781
C           0.9647487    -0.9124166     0.8293883
H           1.6998200    -1.4581805     1.4153726
C           3.7560807     0.7217694     1.2176350
H           2.7633180     1.0689170     1.4856163
C           3.9303303    -0.0871514     0.0841619
C           5.2231265    -0.5181927    -0.2567233
H           5.3411402    -1.1333596    -1.1428893
C           6.3154016    -0.1594801     0.5258703
H           7.3111343    -0.5029036     0.2584037
O           3.0177946    -1.0066333    -1.8991180
32
424_C15H15NO_10-0-1-2 (120,) energy =    -710.5897746
C           0.3987235     0.4585319    -1.1588555
N           0.7482318     1.1467183    -2.3363826
C           1.6840335     2.2615026    -2.2244146
H           2.4677855     2.0464107    -1.4978155
H           1.1775374     3.1935053    -1.9149029
H           2.1646082     2.4360381    -3.1932863
C          -0.3053165     1.4177345    -3.2987593
H          -0.9072325     0.5194822    -3.4599002
H           0.1578374     1.6922378    -4.2527016
H          -0.9773587     2.2453087    -3.0038677
C          -0.9350016     0.3900826    -0.7182406
H          -1.7117200     0.8909333    -1.2852582
C          -1.2853056    -0.2996276     0.4425008
H          -2.3288953    -0.3346144     0.7451435
C           1.3940737    -0.1821918    -0.3704611
C           2.8181740    -0.3411974    -0.8400475
C          -0.3079035    -0.9146761     1.2205527
H          -0.5721470    -1.4490361     2.1281967
C           6.1314431     0.5724133     1.7542749
H           6.9799831     0.8033621     2.3930207
C           4.8643979     1.0632580     2.0727156
H           4.7247056     1.6817318     2.9552130
C           1.0230257    -0.8379944     0.8101930
H           1.7937769    -1.3310111     1.3964291
C           3.7727370     0.7612359     1.2574989
H           2.7892259     1.1466812     1.5066816
C           3.9420697    -0.0287674     0.1100830
C           5.2242794    -0.5048743    -0.2091461
H           5.3412908    -1.0999851    -1.1090562
C           6.3094962    -0.2136934     0.6108493
H           7.2962181    -0.5943689     0.3609732
O           3.0649017    -0.7524583    -1.9651614
32
424_C15H15NO_10-0-1-2 (135,) energy =    -710.5911398
C           0.3552045     0.4897555    -1.1568584
N           0.6099660     1.2178445    -2.3121203
C           1.6676741     2.2184827    -2.3649581
H           2.1355107     2.3324599    -1.3846908
H           1.2413339     3.1922776    -2.6446297
H           2.4493018     1.9498090    -3.0858297
C          -0.4458234     1.4217806    -3.2861461
H          -1.0340607     0.5083108    -3.4057500
H           0.0109065     1.6533542    -4.2542408
H          -1.1289828     2.2507072    -3.0287446
C          -0.9715067     0.3026176    -0.7097066
H          -1.7899236     0.7347981    -1.2743427
C          -1.2555056    -0.4035808     0.4536490
H          -2.2917147    -0.5225363     0.7608620
C           1.4092719    -0.0539220    -0.3617855
C           2.8296828    -0.1171532    -0.8403884
C          -0.2261314    -0.9279700     1.2370725
H          -0.4432086    -1.4792074     2.1468799
C           6.1568970     0.4004298     1.8483921
H           7.0101164     0.5363782     2.5078677
C           4.9180248     0.9464444     2.1874866
H           4.8057251     1.5153520     3.1065604
C           1.0882516    -0.7371705     0.8243640
H           1.8967493    -1.1669078     1.4078399
C           3.8196124     0.7648832     1.3459925
H           2.8593176     1.1963252     1.6104504
C           3.9534644     0.0430934     0.1500700
C           5.2093339    -0.4837720    -0.1912068
H           5.3047595    -1.0186249    -1.1306405
C           6.3002636    -0.3166240     0.6562509
H           7.2650110    -0.7391710     0.3883156
O           3.0980605    -0.3272882    -2.0188122
32
424_C15H15NO_10-0-1-2 (150,) energy =    -710.5919825
C           0.3339744     0.5215580    -1.1520086
N           0.5586907     1.3074295    -2.2670688
C           1.7389367     2.1418282    -2.4251909
H           2.2086799     2.3224480    -1.4540396
H           1.4362682     3.1141181    -2.8324655
H           2.4885812     1.6885517    -3.0845611
C          -0.5048156     1.5448550    -3.2270262
H          -1.0890142     0.6343873    -3.3875956
H          -0.0576213     1.8231367    -4.1858539
H          -1.1919876     2.3528211    -2.9243247
C          -0.9950952     0.2571052    -0.7400237
H          -1.8217524     0.6662775    -1.3088453
C          -1.2722192    -0.4745071     0.4067287
H          -2.3094191    -0.6427076     0.6863877
C           1.3915281    -0.0229495    -0.3579393
C           2.8073573    -0.1093850    -0.8358634
C          -0.2397589    -0.9673502     1.2084349
H          -0.4527740    -1.5370684     2.1076238
C           6.1441235     0.4201893     1.8369955
H           6.9994772     0.5589711     2.4931348
C           4.9085134     0.9756003     2.1731984
H           4.8008904     1.5541781     3.0867757
C           1.0714912    -0.7296704     0.8168920
H           1.8852473    -1.1482422     1.4012875
C           3.8078679     0.7912188     1.3354136
H           2.8495153     1.2290159     1.5966599
C           3.9357231     0.0561204     0.1469940
C           5.1878188    -0.4815919    -0.1909201
H           5.2779668    -1.0282073    -1.1240830
C           6.2815047    -0.3101353     0.6522584
H           7.2436051    -0.7404226     0.3871131
O           3.0673383    -0.3523232    -2.0116177
32
424_C15H15NO_10-0-1-2 (165,) energy =    -710.5911927
C           0.3300440     0.5487468    -1.1409826
N           0.5433945     1.3957701    -2.2107777
C           1.8163705     2.0369553    -2.4938962
H           2.3589888     2.2249288    -1.5621937
H           1.6228449     3.0074932    -2.9624067
H           2.4639028     1.4365161    -3.1435470
C          -0.5451880     1.6880511    -3.1311940
H          -1.0732049     0.7734853    -3.4240331
H          -0.1307224     2.1349442    -4.0371348
H          -1.2799879     2.3911238    -2.7093610
C          -1.0014946     0.2331248    -0.7673124
H          -1.8283489     0.6212556    -1.3489134
C          -1.2856883    -0.5191788     0.3635730
H          -2.3247647    -0.7201309     0.6129847
C           1.3814685    -0.0177549    -0.3509444
C           2.7956916    -0.1467864    -0.8227189
C          -0.2611239    -0.9991991     1.1826221
H          -0.4803579    -1.5834833     2.0708350
C           6.1324247     0.4749116     1.8280163
H           6.9871546     0.6356764     2.4799354
C           4.8920881     1.0258738     2.1543398
H           4.7800584     1.6220567     3.0559854
C           1.0516821    -0.7415909     0.8110875
H           1.8629201    -1.1646092     1.3961994
C           3.7926595     0.8146400     1.3215369
H           2.8303469     1.2490174     1.5736658
C           3.9260491     0.0549389     0.1492838
C           5.1821139    -0.4803248    -0.1780373
H           5.2746736    -1.0487516    -1.0978161
C           6.2753962    -0.2795580     0.6590782
H           7.2411935    -0.7065390     0.4021232
O           3.0464765    -0.4634581    -1.9835452
32
424_C15H15NO_10-0-1-2 (180,) energy =    -710.5894338
C           0.3330250     0.5525694    -1.1176989
N           0.5492907     1.4598651    -2.1401486
C           1.8704048     1.8829859    -2.5765698
H           2.5122536     2.0668977    -1.7087591
H           1.7696903     2.8301462    -3.1134768
H           2.3749637     1.1477003    -3.2138775
C          -0.5710474     1.8538545    -2.9841716
H          -1.0511628     0.9913918    -3.4676246
H          -0.2053718     2.5174390    -3.7688888
H          -1.3363199     2.3965954    -2.4137135
C          -1.0004952     0.2101426    -0.7732610
H          -1.8234371     0.5787690    -1.3711692
C          -1.2971006    -0.5592658     0.3435605
H          -2.3383175    -0.7780692     0.5675127
C           1.3751490    -0.0459230    -0.3362643
C           2.7933984    -0.2119059    -0.7910803
C          -0.2832403    -1.0417964     1.1723206
H          -0.5106734    -1.6372098     2.0510076
C           6.1041795     0.5684761     1.8473665
H           6.9518770     0.7676681     2.4978609
C           4.8521549     1.1080250     2.1473911
H           4.7240490     1.7327260     3.0272956
C           1.0331367    -0.7823973     0.8132564
H           1.8394488    -1.2171761     1.3971600
C           3.7620497     0.8484948     1.3161408
H           2.7898339     1.2726797     1.5466079
C           3.9168782     0.0500789     0.1726923
C           5.1837187    -0.4758588    -0.1277951
H           5.2908139    -1.0775441    -1.0245562
C           6.2681304    -0.2247830     0.7070878
H           7.2429911    -0.6432883     0.4713065
O           3.0446004    -0.6180436    -1.9233238
