15
182_C5H10_2-0-8-10 (-165,) energy =    -196.5376352
C           1.3628222    -0.6561834    -0.2904412
H           1.1003430     0.1672931     0.3780837
C           2.6551755    -0.9059724    -0.5154259
H           2.9247234    -1.7329986    -1.1765499
C           3.8016692    -0.1279678     0.0655171
H           4.4591951    -0.7725626     0.6651276
H           3.4488006     0.6853120     0.7091296
H           4.4291580     0.3110659    -0.7223590
C           0.2048977    -1.4662492    -0.8337604
H           0.3957071    -1.7396923    -1.8800302
C          -1.1428471    -0.7439894    -0.7165181
H          -1.1406793     0.1972122    -1.2792215
H          -1.3692912    -0.5041031     0.3294254
H          -1.9605506    -1.3632945    -1.1011998
H           0.1370822    -2.4174615    -0.2842190
15
182_C5H10_2-0-8-10 (-150,) energy =    -196.5389183
C           1.3566740    -0.7102609    -0.2048163
H           1.1128335     0.0077837     0.5822977
C           2.6369818    -0.8680191    -0.5504676
H           2.8859557    -1.5910631    -1.3304847
C           3.7943471    -0.1164662     0.0435556
H           4.5180879    -0.8003225     0.5082068
H           3.4617031     0.5929394     0.8091972
H           4.3442762     0.4456700    -0.7237162
C           0.1962705    -1.5050205    -0.7531721
H           0.4398418    -1.8814084    -1.7550706
C          -1.1185620    -0.7134756    -0.7840070
H          -1.0359724     0.1718476    -1.4254288
H          -1.3924070    -0.3702816     0.2210189
H          -1.9427560    -1.3283780    -1.1622503
H           0.0432330    -2.3963629    -0.1242553
15
182_C5H10_2-0-8-10 (-135,) energy =    -196.5400396
C           1.3546088    -0.7827975    -0.1124796
H           1.1397771    -0.1615632     0.7609214
C           2.6090614    -0.8371775    -0.5674959
H           2.8237896    -1.4608346    -1.4379929
C           3.7784096    -0.0979429     0.0186213
H           4.5654966    -0.7909872     0.3463831
H           3.4799786     0.5059910     0.8824875
H           4.2398815     0.5717425    -0.7200759
C           0.1856982    -1.5494684    -0.6735384
H           0.4650273    -2.0028615    -1.6332781
C          -1.0763872    -0.6887738    -0.8398632
H          -0.9040700     0.1347590    -1.5423110
H          -1.3817192    -0.2496514     0.1176892
H          -1.9153751    -1.2853779    -1.2154813
H          -0.0546503    -2.3855125     0.0021946
15
182_C5H10_2-0-8-10 (-120,) energy =    -196.5404829
C           1.3544778    -0.8644503    -0.0274304
H           1.1777896    -0.3345714     0.9121587
C           2.5706868    -0.8104864    -0.5768652
H           2.7435407    -1.3384665    -1.5171728
C           3.7504516    -0.0756712    -0.0063764
H           4.5894267    -0.7573638     0.1899592
H           3.4956686     0.4253934     0.9338626
H           4.1234914     0.6853672    -0.7055196
C           0.1692508    -1.5934175    -0.6010281
H           0.4673369    -2.1164485    -1.5188921
C          -1.0199528    -0.6631616    -0.8954646
H          -0.7492824     0.0947691    -1.6390354
H          -1.3448983    -0.1378494     0.0108652
H          -1.8774234    -1.2277306    -1.2794751
H          -0.1597445    -2.3702281     0.1059707
15
182_C5H10_2-0-8-10 (-105,) energy =    -196.5401180
C           1.3605981    -0.9472569     0.0471829
H           1.2343250    -0.5128013     1.0419705
C           2.5266488    -0.7801538    -0.5826636
H           2.6475064    -1.2072374    -1.5807704
C           3.7179793    -0.0517384    -0.0283930
H           4.5963214    -0.7088226     0.0335399
H           3.5181317     0.3406615     0.9746519
H           4.0040269     0.7922085    -0.6711362
C           0.1515980    -1.6340685    -0.5314932
H           0.4504660    -2.2289577    -1.4044879
C          -0.9515006    -0.6441913    -0.9477130
H          -0.5869993     0.0378657    -1.7235751
H          -1.2799430    -0.0343245    -0.0973711
H          -1.8287721    -1.1726658    -1.3390183
H          -0.2601533    -2.3417629     0.2021844
15
182_C5H10_2-0-8-10 (-90,) energy =    -196.5390506
C           1.3687996    -1.0191781     0.1068941
H           1.3098002    -0.6965925     1.1488478
C           2.4750929    -0.7374149    -0.5869111
H           2.5294819    -1.0489863    -1.6327438
C           3.6852881    -0.0307773    -0.0456132
H           4.5841791    -0.6577595    -0.1232361
H           3.5532655     0.2423174     1.0070181
H           3.8960609     0.8883296    -0.6095597
C           0.1296417    -1.6628973    -0.4657013
H           0.4116075    -2.3396522    -1.2832257
C          -0.8814583    -0.6332581    -1.0034541
H          -0.4375575    -0.0449814    -1.8137629
H          -1.1929350     0.0663800    -0.2185600
H          -1.7809645    -1.1276286    -1.3894030
H          -0.3551590    -2.2842984     0.2987814
15
182_C5H10_2-0-8-10 (-75,) energy =    -196.5377014
C           1.3785623    -1.0708058     0.1519501
H           1.4066028    -0.8887469     1.2280756
C           2.4193417    -0.6758881    -0.5867509
H           2.3943268    -0.8461730    -1.6659126
C           3.6602144    -0.0169079    -0.0552369
H           4.5581715    -0.6060751    -0.2870668
H           3.6113123     0.1118590     1.0315651
H           3.8114083     0.9733369    -0.5066997
C           0.1062463    -1.6759339    -0.4009341
H           0.3556502    -2.4474119    -1.1422025
C          -0.8171193    -0.6393299    -1.0668259
H          -0.3131653    -0.1585888    -1.9122410
H          -1.1024787     0.1492017    -0.3607165
H          -1.7354454    -1.1098556    -1.4382010
H          -0.4381604    -2.1881718     0.4017730
15
182_C5H10_2-0-8-10 (-60,) energy =    -196.5367831
C           1.3799738    -1.0977590     0.1799068
H           1.5139303    -1.0848607     1.2629667
C           2.3532558    -0.5923194    -0.5830144
H           2.2327957    -0.5984302    -1.6687600
C           3.6383307    -0.0066655    -0.0703853
H           4.5102890    -0.5468875    -0.4642397
H           3.6857024    -0.0403367     1.0236054
H           3.7532846     1.0406803    -0.3820959
C           0.0739076    -1.6713183    -0.3358775
H           0.2774070    -2.5452120    -0.9712245
C          -0.7766726    -0.6674975    -1.1328148
H          -0.2356075    -0.3016752    -2.0121767
H          -1.0361586     0.2027446    -0.5194120
H          -1.7083817    -1.1303642    -1.4792151
H          -0.5134412    -2.0480883     0.5098630
15
182_C5H10_2-0-8-10 (-45,) energy =    -196.5368723
C           1.3892203    -1.1154372     0.1936541
H           1.6231545    -1.2867322     1.2460829
C           2.3048706    -0.4994256    -0.5593017
H           2.0984046    -0.3251043    -1.6168047
C           3.6347767    -0.0047899    -0.0644743
H           4.4643846    -0.4780318    -0.6077741
H           3.7683080    -0.2125585     1.0028747
H           3.7412514     1.0784135    -0.2147447
C           0.0544234    -1.6513365    -0.2860821
H           0.2064213    -2.6122081    -0.8006033
C          -0.7316630    -0.7037765    -1.2044372
H          -0.1812535    -0.4824922    -2.1254518
H          -0.9334039     0.2486428    -0.7021328
H          -1.6909316    -1.1487926    -1.4930437
H          -0.5640592    -1.8856111     0.5894720
15
182_C5H10_2-0-8-10 (-30,) energy =    -196.5378759
C           1.3953513    -1.1383340     0.1974451
H           1.7095186    -1.4681621     1.1900614
C           2.2577246    -0.4177388    -0.5248755
H           1.9738104    -0.0848842    -1.5239614
C           3.6248298     0.0015594    -0.0622489
H           4.4074339    -0.3822900    -0.7312363
H           3.8365930    -0.3636597     0.9486950
H           3.7287723     1.0953542    -0.0560725
C           0.0327988    -1.6247117    -0.2444414
H           0.1253189    -2.6472241    -0.6428224
C          -0.6893701    -0.7375029    -1.2655070
H          -0.1423531    -0.6768128    -2.2130874
H          -0.8071240     0.2822443    -0.8828563
H          -1.6851962    -1.1366002    -1.4883886
H          -0.6036682    -1.7228130     0.6458746
15
182_C5H10_2-0-8-10 (-15,) energy =    -196.5390227
C           1.4066115    -1.1684178     0.1855757
H           1.7814298    -1.6194728     1.1072479
C           2.2193685    -0.3522895    -0.4910076
H           1.8705223     0.1043419    -1.4174957
C           3.6148711     0.0128527    -0.0684934
H           4.3510609    -0.2749423    -0.8317070
H           3.8926831    -0.4790537     0.8701542
H           3.7204303     1.0972563     0.0734282
C           0.0136549    -1.5943853    -0.2107839
H           0.0373356    -2.6555519    -0.5050684
C          -0.6496130    -0.7691813    -1.3171406
H          -0.0979508    -0.8399216    -2.2615701
H          -0.7032448     0.2896366    -1.0400572
H          -1.6692326    -1.1233076    -1.5040944
H          -0.6241030    -1.5653473     0.6853434
15
182_C5H10_2-0-8-10 (0,) energy =    -196.5394984
C           1.4211442    -1.2060287     0.1666146
H           1.8433219    -1.7540968     1.0121894
C           2.1919557    -0.3057054    -0.4494535
H           1.7916468     0.2534682    -1.2952202
C           3.6093453     0.0160156    -0.0660998
H           4.3016164    -0.1717440    -0.8984224
H           3.9405560    -0.5826666     0.7895216
H           3.7211109     1.0763021     0.1994592
C          -0.0029263    -1.5676477    -0.1749396
H          -0.0510139    -2.6506751    -0.3682516
C          -0.6213159    -0.8160848    -1.3561007
H          -0.0571674    -0.9903561    -2.2794475
H          -0.6413358     0.2647554    -1.1754196
H          -1.6518582    -1.1459095    -1.5262941
H          -0.6261200    -1.4148483     0.7199244
15
182_C5H10_2-0-8-10 (15,) energy =    -196.5390227
C           1.4352291    -1.2299483     0.1314095
H           1.8968285    -1.8675539     0.8889080
C           2.1745070    -0.2558109    -0.4061111
H           1.7338662     0.3982107    -1.1588905
C           3.6111146     0.0209395    -0.0613771
H           4.2587653    -0.0602725    -0.9452152
H           3.9846668    -0.6768428     0.6960985
H           3.7390539     1.0410269     0.3263717
C          -0.0170400    -1.5283846    -0.1527151
H          -0.1341679    -2.6187915    -0.2417411
C          -0.6055426    -0.8639765    -1.4005685
H          -0.0388727    -1.1389521    -2.2972407
H          -0.5951400     0.2291002    -1.3208323
H          -1.6459324    -1.1734467    -1.5482115
H          -0.6153227    -1.2522287     0.7299112
15
182_C5H10_2-0-8-10 (30,) energy =    -196.5378759
C           1.4454004    -1.2420023     0.0954469
H           1.9442414    -1.9713338     0.7373232
C           2.1606090    -0.2038114    -0.3465042
H           1.6835314     0.5449590    -0.9799999
C           3.6163690     0.0243226    -0.0505427
H           4.2125516     0.0620783    -0.9726998
H           4.0264524    -0.7685130     0.5846598
H           3.7736616     0.9834612     0.4619675
C          -0.0296646    -1.4856793    -0.1349938
H          -0.2076645    -2.5697396    -0.1126114
C          -0.5982171    -0.9245843    -1.4438638
H          -0.0554235    -1.3228831    -2.3081019
H          -0.5310575     0.1684762    -1.4829660
H          -1.6556669    -1.1907726    -1.5514137
H          -0.6000212    -1.0854457     0.7178317
15
182_C5H10_2-0-8-10 (45,) energy =    -196.5368716
C           1.4437474    -1.2382997     0.0611168
H           1.9833357    -2.0556123     0.5432982
C           2.1368454    -0.1463516    -0.2735114
H           1.6219633     0.6908391    -0.7481431
C           3.6117127     0.0374756    -0.0523636
H           4.1403159     0.2157555    -0.9989493
H           4.0586639    -0.8421263     0.4238184
H           3.8143580     0.9080017     0.5867796
C          -0.0480632    -1.4401103    -0.1215808
H          -0.2784962    -2.5026992     0.0260448
C          -0.5989366    -1.0023538    -1.4869503
H          -0.1034311    -1.5444045    -2.2998210
H          -0.4463907     0.0683671    -1.6615184
H          -1.6758008    -1.1963069    -1.5523294
H          -0.5917244    -0.9108961     0.6755760
15
182_C5H10_2-0-8-10 (60,) energy =    -196.5367831
C           1.4421901    -1.2305848     0.0405390
H           1.9978583    -2.1253930     0.3263436
C           2.1267519    -0.1037317    -0.1748215
H           1.5835695     0.7996484    -0.4616128
C           3.6167255     0.0410646    -0.0474551
H           4.0698060     0.3649892    -0.9946109
H           4.0874481    -0.9036084     0.2461562
H           3.8831714     0.7997044     0.7013729
C          -0.0598082    -1.3824384    -0.1068759
H          -0.3482856    -2.4026854     0.1725722
C          -0.5813250    -1.0809787    -1.5222891
H          -0.1228539    -1.7480231    -2.2610513
H          -0.3493206    -0.0521081    -1.8180269
H          -1.6689646    -1.2095112    -1.5755899
H          -0.5716479    -0.7211255     0.6068856
15
182_C5H10_2-0-8-10 (75,) energy =    -196.5377019
C           1.4654288    -0.4034201    -1.0137560
H           1.5958915     0.6114539    -1.3945304
C           2.3946989    -0.8971546    -0.1906478
H           2.2657959    -1.9086566     0.2023545
C           3.6402299    -0.1780873     0.2431693
H           3.6787006    -0.0695878     1.3358778
H           3.6988638     0.8231773    -0.1974417
H           4.5444930    -0.7302569    -0.0477164
C           0.1824715    -1.1111746    -1.3930378
H          -0.2399263    -0.6520752    -2.2951622
C          -0.8702678    -1.0985712    -0.2696051
H          -1.1293724    -0.0734960     0.0201148
H          -0.4899171    -1.6074570     0.6226563
H          -1.7907688    -1.6038694    -0.5858331
H           0.4001603    -2.1557726    -1.6545457
15
182_C5H10_2-0-8-10 (90,) energy =    -196.5390509
C           1.4476997    -0.4150090    -0.9472807
H           1.4792365     0.6471256    -1.2005329
C           2.4536304    -0.9322771    -0.2364617
H           2.4179662    -1.9916483     0.0286985
C           3.6667982    -0.1783504     0.2287548
H           3.7577949    -0.2054645     1.3233702
H           3.6296410     0.8718644    -0.0806051
H           4.5904967    -0.6177085    -0.1723410
C           0.1982195    -1.1613377    -1.3466638
H          -0.1618950    -0.7937615    -2.3166129
C          -0.9277958    -1.0374968    -0.3033966
H          -1.1978963     0.0113633    -0.1316272
H          -0.6109243    -1.4589284     0.6566581
H          -1.8299506    -1.5675779    -0.6314194
H           0.4340491    -2.2248085    -1.4855295
15
182_C5H10_2-0-8-10 (105,) energy =    -196.5401181
C           1.4286380    -0.4293695    -0.8566999
H           1.3817993     0.6533881    -0.9972039
C           2.5082089    -0.9531803    -0.2698043
H           2.5499687    -2.0345669    -0.1212284
C           3.7026239    -0.1759453     0.2058884
H           3.8645972    -0.3135761     1.2838536
H           3.5854640     0.8966351     0.0165406
H           4.6226883    -0.5097114    -0.2932721
C           0.2110413    -1.2047046    -1.2865024
H          -0.0746893    -0.9120206    -2.3069473
C          -0.9907683    -0.9911428    -0.3484467
H          -1.2650212     0.0690919    -0.2884118
H          -0.7548344    -1.3304237     0.6660595
H          -1.8693362    -1.5445235    -0.7004464
H           0.4526538    -2.2749823    -1.3254488
15
182_C5H10_2-0-8-10 (120,) energy =    -196.5404829
C           1.4093563    -0.4505031    -0.7488315
H           1.3003400     0.6364971    -0.7857870
C           2.5544046    -0.9661887    -0.2939890
H           2.6598584    -2.0525587    -0.2552847
C           3.7388103    -0.1713539     0.1778686
H           3.9863696    -0.4049454     1.2225150
H           3.5537859     0.9060636     0.1074087
H           4.6355746    -0.4001623    -0.4142408
C           0.2186640    -1.2444933    -1.2147179
H           0.0167819    -1.0148962    -2.2720921
C          -1.0518775    -0.9519960    -0.3983650
H          -1.3114869     0.1128763    -0.4387892
H          -0.9105047    -1.2191145     0.6548562
H          -1.9076108    -1.5188937    -0.7828195
H           0.4501690    -2.3165309    -1.1694900
15
182_C5H10_2-0-8-10 (135,) energy =    -196.5400394
C           1.3953223    -0.4813751    -0.6362964
H           1.2343160     0.5975667    -0.5661985
C           2.5950605    -0.9741055    -0.3176055
H           2.7559386    -2.0518279    -0.3917271
C           3.7704765    -0.1632003     0.1493982
H           4.1077040    -0.4832341     1.1448698
H           3.5273551     0.9036793     0.2016164
H           4.6302366    -0.2813833    -0.5244537
C           0.2247478    -1.2851926    -1.1386616
H           0.1112312    -1.1185175    -2.2215439
C          -1.1001111    -0.9137944    -0.4544397
H          -1.3297070     0.1496835    -0.5932150
H          -1.0559091    -1.1054560     0.6238193
H          -1.9344584    -1.4915434    -0.8679677
H           0.4290460    -2.3563938    -1.0141237
15
182_C5H10_2-0-8-10 (150,) energy =    -196.5389182
C           1.3827665    -0.5225113    -0.5286632
H           1.1791053     0.5339197    -0.3361171
C           2.6256608    -0.9770863    -0.3494039
H           2.8334593    -2.0306021    -0.5497143
C           3.7903604    -0.1544243     0.1239289
H           4.2159218    -0.5583728     1.0528377
H           3.4985049     0.8850251     0.3096430
H           4.6029757    -0.1501845    -0.6156534
C           0.2232897    -1.3287731    -1.0618251
H           0.1961898    -1.2355211    -2.1590948
C          -1.1352023    -0.8717457    -0.5124373
H          -1.3183524     0.1833345    -0.7493946
H          -1.1810183    -0.9792932     0.5776762
H          -1.9546473    -1.4572150    -0.9439590
H           0.3812424    -2.3949197    -0.8539373
15
182_C5H10_2-0-8-10 (165,) energy =    -196.5376352
C           1.3742747    -0.5677982    -0.4409729
H           1.1350231     0.4420762    -0.0991453
C           2.6476004    -0.9681112    -0.4011985
H           2.8948962    -1.9738796    -0.7490317
C           3.7995148    -0.1436616     0.0994118
H           4.3087938    -0.6341664     0.9404141
H           3.4685426     0.8452972     0.4349638
H           4.5574657     0.0009484    -0.6828736
C           0.2171107    -1.3756279    -0.9892195
H           0.2690655    -1.3854014    -2.0885857
C          -1.1524412    -0.8232508    -0.5756571
H          -1.2780997     0.2106325    -0.9193349
H          -1.2706561    -0.8265801     0.5145335
H          -1.9667586    -1.4182142    -1.0035165
H           0.3098051    -2.4244354    -0.6773381
15
182_C5H10_2-0-8-10 (180,) energy =    -196.5370293
C           1.3691090    -0.6127046    -0.3659126
H           1.1064408     0.3161225     0.1457491
C           2.6592674    -0.9436098    -0.4606846
H           2.9295942    -1.8710243    -0.9713551
C           3.8027271    -0.1357737     0.0844768
H           4.3882767    -0.7115635     0.8145034
H           3.4492251     0.7757126     0.5788732
H           4.5001725     0.1595464    -0.7115717
C           0.2117844    -1.4244453    -0.9146549
H           0.3377544    -1.5662513    -1.9973555
C          -1.1530279    -0.7801206    -0.6461680
H          -1.2169748     0.2147895    -1.1031031
H          -1.3293365    -0.6623186     0.4298442
H          -1.9676715    -1.3885018    -1.0539012
H           0.2261718    -2.4336651    -0.4793326
