15
157_C4H9NO_11-0-2-3 (-165,) energy =    -287.8374554
N           1.3012054    -0.8172119    -0.6296943
H           1.3695958    -0.0237363    -1.2516828
C           2.1421474    -0.8488829     0.4537218
C           3.1653557     0.2864802     0.5085968
C           4.4667761    -0.1384141     1.1911561
H           4.2508094    -0.5755724     2.1691787
H           5.1350241     0.7187599     1.3243299
H           4.9938705    -0.8938143     0.5984033
H           2.6981292     1.1046119     1.0754548
H           3.3605515     0.6789860    -0.4981575
O           2.0606537    -1.6997523     1.3310864
C           0.0835786    -1.6090882    -0.6816094
H          -0.0692147    -2.0141839    -1.6873928
H          -0.8000278    -1.0216046    -0.3978195
H           0.1986668    -2.4324175     0.0245051
15
157_C4H9NO_11-0-2-3 (-150,) energy =    -287.8351101
N           1.3699350    -0.9350477    -0.7160972
H           1.4093616    -0.0966506    -1.2822946
C           2.2345467    -0.9667027     0.3575022
C           3.1769022     0.2328242     0.4633846
C           4.4524526    -0.0846465     1.2437066
H           4.2013809    -0.5166540     2.2156533
H           5.0487917     0.8202585     1.4004181
H           5.0701397    -0.8128716     0.7074805
H           2.6089057     1.0235838     0.9751623
H           3.4141609     0.6234511    -0.5355554
O           2.1983981    -1.8478130     1.2053527
C           0.0595833    -1.5679356    -0.6323832
H          -0.2764343    -1.8760273    -1.6271696
H          -0.6931864    -0.8987366    -0.1929112
H           0.1553307    -2.4507210     0.0009586
15
157_C4H9NO_11-0-2-3 (-135,) energy =    -287.8307504
N           1.4227449    -1.0401123    -0.7979246
H           1.4733784    -0.1833709    -1.3386349
C           2.3209660    -1.0704677     0.2596859
C           3.1698293     0.1895352     0.4311034
C           4.4180027    -0.0393545     1.2819641
H           4.1463678    -0.4986099     2.2357591
H           4.9347264     0.9060348     1.4775997
H           5.1178526    -0.7142838     0.7782191
H           2.5110426     0.9289107     0.9103154
H           3.4339882     0.6099961    -0.5494263
O           2.3420033    -1.9862225     1.0678295
C           0.0531468    -1.5058180    -0.5870932
H          -0.4054309    -1.7706606    -1.5444234
H          -0.5689440    -0.7473983    -0.0908553
H           0.0920975    -2.3958578     0.0424927
15
157_C4H9NO_11-0-2-3 (-120,) energy =    -287.8248422
N           1.4580109    -1.1591363    -0.8662973
H           1.5301881    -0.3115885    -1.4222792
C           2.3908717    -1.1712657     0.1757191
C           3.1455745     0.1380004     0.4053812
C           4.3668447    -0.0168337     1.3094477
H           4.0834696    -0.4875451     2.2542465
H           4.8202208     0.9572374     1.5209616
H           5.1240579    -0.6527450     0.8392947
H           2.4124837     0.8207574     0.8609186
H           3.4222700     0.5952250    -0.5554976
O           2.4758653    -2.1116807     0.9470693
C           0.0574741    -1.4388940    -0.5330870
H          -0.5095520    -1.6214178    -1.4504208
H          -0.4146923    -0.6133290     0.0197216
H           0.0216673    -2.3394912     0.0823550
15
157_C4H9NO_11-0-2-3 (-105,) energy =    -287.8182161
N           1.4832095    -1.2709640    -0.9246650
H           1.5806186    -0.4423701    -1.5084822
C           2.4621318    -1.2596493     0.0935075
C           3.1136456     0.0913496     0.3845061
C           4.3015091     0.0034462     1.3399906
H           4.0074088    -0.4839251     2.2731206
H           4.6898442     1.0012107     1.5698255
H           5.1118956    -0.5884380     0.9025544
H           2.3140782     0.7147194     0.8135002
H           3.3994651     0.5862184    -0.5552615
O           2.6393021    -2.2295315     0.8059554
C           0.0869586    -1.3623679    -0.4716098
H          -0.5668829    -1.4757056    -1.3409127
H          -0.2363405    -0.4803584     0.1027926
H          -0.0212082    -2.2485451     0.1574424
15
157_C4H9NO_11-0-2-3 (-90,) energy =    -287.8182061
N           1.4508844    -0.9559916    -1.0408967
H           1.5314027    -1.7679968    -1.6564833
C           2.6027919    -1.0323880    -0.2040481
C           3.0691374     0.3058720     0.3462946
C           4.0888982     0.1854027     1.4773248
H           3.6423223    -0.2750274     2.3653804
H           4.4719076     1.1709105     1.7620297
H           4.9294801    -0.4419713     1.1690670
H           2.2032050     0.9128969     0.6405977
H           3.5030668     0.8267988    -0.5191219
O           3.2725790    -2.0459533    -0.1288592
C           0.1562966    -1.0872862    -0.3420949
H          -0.6508864    -1.0146105    -1.0763878
H           0.0327859    -0.2652114     0.3704297
H           0.0579551    -2.0368082     0.2031855
15
157_C4H9NO_11-0-2-3 (-75,) energy =    -287.8233369
N           1.4750901    -1.0686760    -1.0200284
H           1.5171088    -1.9231341    -1.5764569
C           2.6562982    -1.0602888    -0.2512329
C           3.0314246     0.2859356     0.3563923
C           4.0548018     0.1762725     1.4863765
H           3.6355542    -0.3504837     2.3507257
H           4.3760162     1.1693688     1.8174574
H           4.9316987    -0.3840018     1.1520650
H           2.1360138     0.8316504     0.6776283
H           3.4427399     0.8658318    -0.4818513
O           3.4316751    -2.0018062    -0.2737401
C           0.1774116    -1.0230813    -0.3271560
H          -0.6212372    -0.9619913    -1.0719485
H           0.1159093    -0.1281295     0.2985286
H           0.0015359    -1.9027581     0.3081269
15
157_C4H9NO_11-0-2-3 (-60,) energy =    -287.8274219
N           1.5023343    -1.1819800    -0.9869343
H           1.5303089    -2.0752983    -1.4756572
C           2.6721992    -1.1004436    -0.2253506
C           2.9558386     0.2436838     0.4394719
C           4.0946602     0.1732662     1.4567682
H           3.8309525    -0.4729242     2.3007149
H           4.3242236     1.1698142     1.8484567
H           4.9948679    -0.2403595     0.9956686
H           2.0481712     0.6537648     0.8983332
H           3.2101265     0.9310391    -0.3792969
O           3.5079375    -1.9905324    -0.2703981
C           0.1774849    -0.9499761    -0.4008168
H          -0.5731369    -1.0251895    -1.1925602
H           0.1146240     0.0587361     0.0148473
H          -0.0757302    -1.6705153     0.3901425
15
157_C4H9NO_11-0-2-3 (-45,) energy =    -287.8310435
N           1.5545149    -1.2760789    -0.9248792
H           1.5439711    -2.2069759    -1.3341548
C           2.6342197    -1.1812245    -0.0555230
C           2.8137058     0.1587197     0.6560214
C           4.1810057     0.2798110     1.3275302
H           4.3307059    -0.5241211     2.0532485
H           4.2697177     1.2407395     1.8454234
H           4.9862863     0.2066401     0.5907815
H           2.0152286     0.2810135     1.4024920
H           2.6600356     0.9596780    -0.0786591
O           3.4606183    -2.0792669     0.0167944
C           0.2186108    -0.7886913    -0.5840866
H          -0.4319779    -0.9055836    -1.4552201
H           0.2547865     0.2768031    -0.3417845
H          -0.2345080    -1.3234822     0.2635249
15
157_C4H9NO_11-0-2-3 (-30,) energy =    -287.8332755
N           1.4680026    -1.4068592    -0.8391904
H           1.4220898    -2.3395755    -1.2361762
C           2.5981262    -1.2607098    -0.0587635
C           2.7453591     0.0649886     0.6861147
C           4.1127270     0.2041475     1.3534482
H           4.2858928    -0.6123266     2.0597531
H           4.1811939     1.1548917     1.8928217
H           4.9150052     0.1662529     0.6110398
H           1.9451078     0.1452226     1.4360652
H           2.5707030     0.8851896    -0.0233441
O           3.4660510    -2.1234183    -0.0453551
C           0.1814318    -0.7771343    -0.5724731
H          -0.4855262    -0.9686088    -1.4175413
H           0.2975009     0.3064134    -0.4845315
H          -0.3034933    -1.1494617     0.3421688
15
157_C4H9NO_11-0-2-3 (-15,) energy =    -287.8341344
N           1.4775712    -1.4557446    -0.7294209
H           1.4441071    -2.3744424    -1.1541592
C           2.6445503    -1.2362963    -0.0366044
C           2.7375556     0.0739664     0.7438470
C           4.0955930     0.2461401     1.4219467
H           4.2936612    -0.5789001     2.1117240
H           4.1285639     1.1868016     1.9819722
H           4.9018543     0.2509434     0.6831502
H           1.9284219     0.1038953     1.4876230
H           2.5389446     0.9092081     0.0577089
O           3.5641604    -2.0440806    -0.0827698
C           0.2219219    -0.7426208    -0.5669906
H          -0.4542931    -1.0358508    -1.3743398
H           0.3758066     0.3379251    -0.6420939
H          -0.2757220    -0.9545294     0.3908862
15
157_C4H9NO_11-0-2-3 (0,) energy =    -287.8341730
N           1.4536612    -1.5091542    -0.6656589
H           1.4530515    -2.3585627    -1.2145280
C           2.6548520    -1.2462075    -0.0583638
C           2.7190238     0.0254654     0.7859206
C           4.0949351     0.2305622     1.4167733
H           4.3570678    -0.6132601     2.0610625
H           4.1103882     1.1470642     2.0162203
H           4.8687847     0.3026164     0.6474827
H           1.9409634    -0.0231024     1.5610462
H           2.4507281     0.8844281     0.1543605
O           3.6112128    -1.9997478    -0.1965363
C           0.2377591    -0.7183276    -0.5980661
H          -0.5310314    -1.2144187    -1.1949627
H           0.3769070     0.2921860    -1.0032710
H          -0.1411638    -0.6271359     0.4279413
15
157_C4H9NO_11-0-2-3 (15,) energy =    -287.8341344
N           1.4273952    -1.5449567    -0.5910722
H           1.4785435    -2.3133239    -1.2487366
C           2.6540301    -1.2196799    -0.0623566
C           2.7006271     0.0080440     0.8459767
C           4.0932271     0.2415607     1.4289536
H           4.4140206    -0.6162953     2.0265070
H           4.0984835     1.1329030     2.0653822
H           4.8309821     0.3755417     0.6330348
H           1.9610416    -0.1179658     1.6490984
H           2.3692787     0.8869245     0.2745190
O           3.6397618    -1.9100307    -0.2905657
C           0.2462015    -0.6996307    -0.6333356
H          -0.6048041    -1.3031555    -0.9598444
H           0.3472676     0.1516377    -1.3226940
H           0.0112762    -0.3096101     0.3614497
15
157_C4H9NO_11-0-2-3 (30,) energy =    -287.8332755
N           0.6363379    -0.6216352    -0.0374998
H          -0.1865997    -0.6202653     0.5561646
C           1.7808176    -0.4227003     0.7096257
C           3.1082385    -0.5024068    -0.0424369
C           4.2904725    -0.0726394     0.8247522
H           4.1750783     0.9632128     1.1563404
H           5.2277408    -0.1572072     0.2644823
H           4.3613953    -0.6940529     1.7215789
H           3.0366952     0.1213479    -0.9437570
H           3.2541274    -1.5308130    -0.4034942
O           1.7114174    -0.1147715     1.8920396
C           0.5492021    -1.4620029    -1.2245740
H          -0.4381150    -1.3313734    -1.6759902
H           0.6933216    -2.5316600    -1.0114704
H           1.2923343    -1.1548685    -1.9653198
15
157_C4H9NO_11-0-2-3 (45,) energy =    -287.8310435
N           0.6985381    -0.4689875    -0.1064932
H          -0.1141288    -0.4357112     0.5039592
C           1.8466717    -0.3802683     0.6709758
C           3.1763365    -0.4115082    -0.0806736
C           4.3507685     0.0102661     0.8013195
H           4.2200430     1.0343077     1.1630915
H           5.2898033    -0.0431366     0.2402235
H           4.4302055    -0.6366618     1.6791340
H           3.0873927     0.2385265    -0.9607010
H           3.3452435    -1.4247715    -0.4737483
O           1.7749453    -0.1509026     1.8696798
C           0.5530291    -1.4330920    -1.1962895
H          -0.4000059    -1.2528573    -1.7013070
H           0.5745844    -2.4786463    -0.8555334
H           1.3474349    -1.2929849    -1.9342506
15
157_C4H9NO_11-0-2-3 (60,) energy =    -287.8274219
N           0.6872853    -0.4318509    -0.2244857
H          -0.1366138    -0.3065283     0.3612913
C           1.8013143    -0.2116798     0.5914223
C           3.1536743    -0.1417055    -0.1123849
C           4.3311293    -0.1669979     0.8621533
H           4.2287409     0.6260042     1.6069602
H           5.2771499    -0.0299588     0.3278384
H           4.3778801    -1.1195735     1.4004506
H           3.1426596     0.7979972    -0.6818931
H           3.2489121    -0.9388220    -0.8594560
O           1.6622054     0.1103145     1.7617702
C           0.5588719    -1.6353889    -1.0536974
H          -0.3669123    -1.5647122    -1.6315175
H           0.5329999    -2.5634668    -0.4647040
H           1.3851304    -1.6987955    -1.7660911
15
157_C4H9NO_11-0-2-3 (75,) energy =    -287.8233369
N           0.7182226    -0.3944058    -0.3354636
H          -0.1204297    -0.2007491     0.2128395
C           1.8000033    -0.1922003     0.5450094
C           3.1608442    -0.0221197    -0.1193949
C           4.3327686    -0.2129177     0.8430920
H           4.2165619     0.4338128     1.7165079
H           5.2819034     0.0252731     0.3517248
H           4.3864077    -1.2467204     1.2018603
H           3.1512269     1.0023659    -0.5174512
H           3.2510481    -0.6752279    -0.9957911
O           1.6163248     0.0609982     1.7241292
C           0.5644303    -1.7084684    -0.9802178
H          -0.2749738    -1.6649407    -1.6800705
H           0.3822812    -2.5186697    -0.2599792
H           1.4622785    -1.9533364    -1.5547702
15
157_C4H9NO_11-0-2-3 (90,) energy =    -287.8182061
N           0.7582551    -0.3639944    -0.4412548
H          -0.0755747    -0.0915767     0.0834345
C           1.8209149    -0.2526665     0.5028867
C           3.1842080     0.0146584    -0.1145796
C           4.3487775    -0.1821555     0.8542840
H           4.1929074     0.4042986     1.7636656
H           5.2933618     0.1267628     0.3946007
H           4.4430815    -1.2323123     1.1515146
H           3.1336402     1.0569995    -0.4603732
H           3.3068090    -0.5834850    -1.0267889
O           1.6076796    -0.1568626     1.6974305
C           0.5071155    -1.7287450    -0.9471247
H          -0.3228703    -1.6950508    -1.6584618
H           0.2634758    -2.4438019    -0.1484212
H           1.3890764    -2.0956210    -1.4821951
15
157_C4H9NO_11-0-2-3 (105,) energy =    -287.8182164
N           0.6667086    -0.5131925    -0.1527728
H           0.8151343     0.1954160    -0.8688677
C           1.8142061    -0.6186566     0.6641884
C           3.1056904    -0.0427680     0.0855957
C           4.2569796     0.0024016     1.0876903
H           4.0236261     0.6728553     1.9210156
H           5.1755948     0.3565858     0.6082529
H           4.4386412    -0.9903023     1.5075675
H           2.9190296     0.9518252    -0.3453466
H           3.3576843    -0.6903849    -0.7682300
O           1.8019661    -1.2834276     1.6827885
C           0.2295359    -1.7553265    -0.8079913
H          -0.7216003    -1.5778805    -1.3177898
H           0.0723234    -2.5194279    -0.0436947
H           0.9593371    -2.1338748    -1.5404499
15
157_C4H9NO_11-0-2-3 (120,) energy =    -287.8248423
N           0.7483264    -0.5466725    -0.2490482
H           0.9229786     0.1329622    -0.9842214
C           1.8720930    -0.7082351     0.5686274
C           3.1515738    -0.0312409     0.0773798
C           4.2465104     0.0390029     1.1398574
H           3.9457930     0.6864537     1.9700107
H           5.1753650     0.4344112     0.7156319
H           4.4406335    -0.9544682     1.5519750
H           2.9266203     0.9680051    -0.3225604
H           3.4866174    -0.6290277    -0.7836758
O           1.8654259    -1.4695702     1.5209307
C           0.1257788    -1.7560758    -0.7975582
H          -0.8561181    -1.5096421    -1.2116837
H          -0.0094624    -2.4727900     0.0142842
H           0.7375621    -2.2225515    -1.5837924
15
157_C4H9NO_11-0-2-3 (135,) energy =    -287.8307507
N           0.8406895    -0.5974413    -0.3415326
H           1.0127266     0.0653240    -1.0899467
C           1.9470911    -0.7997997     0.4716219
C           3.2047094    -0.0312882     0.0649945
C           4.2325401     0.0752249     1.1903591
H           3.8499882     0.6864320     2.0144451
H           5.1604203     0.5302916     0.8284205
H           4.4573846    -0.9158491     1.5924092
H           2.9380260     0.9633424    -0.3192704
H           3.6276366    -0.5822459    -0.7881565
O           1.9496474    -1.6265082     1.3708833
C           0.0441465    -1.7476611    -0.7655688
H          -0.9563473    -1.4219919    -1.0653153
H          -0.0465516    -2.4271712     0.0830192
H           0.5101580    -2.2863314    -1.6028997
15
157_C4H9NO_11-0-2-3 (150,) energy =    -287.8351101
N           0.9327035    -0.6564381    -0.4339325
H           1.0716128     0.0123722    -1.1812280
C           2.0332010    -0.8930254     0.3623585
C           3.2586566    -0.0367812     0.0410727
C           4.2034746     0.1139536     1.2332280
H           3.7301133     0.6832768     2.0401709
H           5.1210057     0.6345814     0.9397580
H           4.4657185    -0.8689654     1.6325290
H           2.9500749     0.9452957    -0.3424661
H           3.7756255    -0.5414218    -0.7883350
O           2.0543406    -1.7746804     1.2101518
C          -0.0174498    -1.7233586    -0.7228888
H          -1.0088427    -1.3044529    -0.9206278
H          -0.0715173    -2.3685674     0.1548248
H           0.2930732    -2.3279953    -1.5863759
15
157_C4H9NO_11-0-2-3 (165,) energy =    -287.8374560
N           1.0217881    -0.7332838    -0.5446474
H           1.1124966    -0.0181653    -1.2528425
C           2.1160156    -0.9902681     0.2418951
C           3.3090210    -0.0621251     0.0087800
C           4.1399463     0.1438844     1.2764688
H           3.5689008     0.6863040     2.0376940
H           5.0480607     0.7156382     1.0585837
H           4.4222837    -0.8230342     1.7002782
H           2.9745538     0.8999312    -0.4015063
H           3.9275156    -0.5327894    -0.7690103
O           2.1518731    -1.9135424     1.0460363
C          -0.0626903    -1.6898791    -0.6902086
H          -1.0293824    -1.1758188    -0.7080591
H          -0.0264030    -2.3586389     0.1706978
H           0.0380823    -2.2876997    -1.6061146
15
157_C4H9NO_11-0-2-3 (180,) energy =    -287.8379260
N           1.0699924    -0.7350564    -0.5347537
H           0.9503063     0.1969754    -0.9034387
C           2.2606320    -1.0553129     0.0595541
C           3.3202257     0.0473816     0.0208042
C           4.1802181     0.0560705     1.2869188
H           3.5874977     0.3344142     2.1652592
H           5.0055928     0.7694204     1.1924653
H           4.5909600    -0.9408531     1.4648116
H           2.8558536     1.0285633    -0.1437174
H           3.9551083    -0.1469412    -0.8550036
O           2.4777323    -2.1503774     0.5656484
C          -0.0507104    -1.6553831    -0.5943811
H          -0.3625235    -1.8354304    -1.6301478
H          -0.9105645    -1.2766872    -0.0280360
H           0.2805847    -2.5956237    -0.1514024
