15
157_C4H9NO_0-2-3-4 (-165,) energy =    -287.8377713
N           1.4231963    -1.2292545    -0.8137035
H           1.6276680    -0.7282147    -1.6663176
C           2.2497248    -1.0495024     0.2635521
C           3.3869752    -0.0509891     0.0305307
C           4.4773626    -0.1504612     1.0962825
H           4.0482200    -0.0297198     2.0940215
H           5.2392202     0.6210610     0.9424022
H           4.9673502    -1.1288945     1.0674252
H           2.9491624     0.9578455     0.0316411
H           3.8069708    -0.1980590    -0.9739697
O           2.0796993    -1.6205566     1.3339770
C           0.2580173    -2.0935050    -0.7770090
H          -0.6658229    -1.5286288    -0.9528575
H           0.2190200    -2.5393436     0.2178569
H           0.3300258    -2.8924588    -1.5249521
15
157_C4H9NO_0-2-3-4 (-150,) energy =    -287.8379467
N           1.4562949    -1.2648845    -0.8187728
H           1.7391494    -0.8647271    -1.7013909
C           2.1801810    -0.9551661     0.3010600
C           3.3356610     0.0208580     0.0700806
C           4.4901353    -0.2139698     1.0459024
H           4.1189830    -0.2055836     2.0736401
H           5.2552939     0.5617952     0.9372719
H           4.9624967    -1.1867805     0.8715865
H           2.9337033     1.0346813     0.2087731
H           3.6839298    -0.0335550    -0.9698653
O           1.9104868    -1.3995988     1.4109159
C           0.2861728    -2.1228545    -0.7863420
H          -0.6161911    -1.5824749    -1.0981734
H           0.1620473    -2.4592329     0.2439460
H           0.4158296    -2.9966604    -1.4361283
15
157_C4H9NO_0-2-3-4 (-135,) energy =    -287.8378875
N           1.4956007    -1.2878106    -0.8070052
H           1.8402264    -0.9648351    -1.6989543
C           2.1159630    -0.8504699     0.3317119
C           3.2943474     0.0975689     0.1100400
C           4.4933588    -0.2806055     0.9860696
H           4.1809042    -0.3522925     2.0310359
H           5.2882453     0.4680577     0.9041647
H           4.9078119    -1.2511432     0.6911146
H           2.9481630     1.1050101     0.3771015
H           3.5818796     0.1327402    -0.9487944
O           1.7563027    -1.1832746     1.4554808
C           0.3329911    -2.1563119    -0.7827567
H          -0.5451569    -1.6632364    -1.2177030
H           0.1287840    -2.3912656     0.2628083
H           0.5219283    -3.0873271    -1.3303932
15
157_C4H9NO_0-2-3-4 (-120,) energy =    -287.8375725
N           1.5352750    -1.2994609    -0.7870178
H           1.9469801    -1.0512911    -1.6743529
C           2.0486145    -0.7422486     0.3527692
C           3.2550569     0.1721670     0.1511666
C           4.4781116    -0.3506126     0.9173184
H           4.2205826    -0.4994952     1.9695946
H           5.3097656     0.3591540     0.8561687
H           4.8191561    -1.3099025     0.5116482
H           2.9751164     1.1594812     0.5376797
H           3.4922059     0.2973515    -0.9132739
O           1.5967712    -0.9721663     1.4691127
C           0.3893302    -2.1900362    -0.7759237
H          -0.4584543    -1.7600750    -1.3234634
H           0.1041293    -2.3335002     0.2672845
H           0.6383909    -3.1619959    -1.2182430
15
157_C4H9NO_0-2-3-4 (-105,) energy =    -287.8370828
N           1.5433643    -1.7151177     0.2211608
H           1.6651333    -1.8259588     1.2169023
C           2.5862636    -1.2231140    -0.5172980
C           3.8147935    -0.8048357     0.2862868
C           3.9109720     0.7261166     0.3843039
H           3.9067576     1.1665702    -0.6172001
H           4.8335282     1.0268501     0.8920304
H           3.0646613     1.1421469     0.9427893
H           4.6901119    -1.1966656    -0.2420936
H           3.8088928    -1.2507445     1.2895242
O           2.5314884    -1.0764878    -1.7331680
C           0.2840209    -2.1204542    -0.3752172
H           0.0887287    -3.1873473    -0.2118344
H           0.3612291    -1.9317139    -1.4469859
H          -0.5539544    -1.5421056     0.0323903
15
157_C4H9NO_0-2-3-4 (-90,) energy =    -287.8365525
N           1.5596436    -1.6481472     0.2046024
H           1.6588673    -1.6389928     1.2091788
C           2.6399836    -1.3028700    -0.5644203
C           3.8621799    -0.8302166     0.2190296
C           3.8305014     0.6919717     0.4387447
H           3.7621184     1.2134394    -0.5213268
H           4.7391003     1.0298486     0.9484113
H           2.9694865     0.9899128     1.0478088
H           4.7417296    -1.1051766    -0.3698271
H           3.9326459    -1.3479402     1.1850263
O           2.6160328    -1.3139070    -1.7896682
C           0.2919517    -2.0649359    -0.3653171
H           0.0401359    -3.0921236    -0.0743817
H           0.3971763    -2.0173536    -1.4501762
H          -0.5231435    -1.4004843    -0.0536409
15
157_C4H9NO_0-2-3-4 (-75,) energy =    -287.8360923
N           1.5671916    -1.5612797     0.1791566
H           1.6390916    -1.4080781     1.1745945
C           2.6786339    -1.3623846    -0.5982350
C           3.8985983    -0.8345888     0.1558269
C           3.7699027     0.6568055     0.5105947
H           3.6114207     1.2560960    -0.3922038
H           4.6804354     1.0171628     1.0011430
H           2.9283337     0.8425461     1.1876352
H           4.7600489    -0.9951960    -0.4971340
H           4.0592855    -1.4223802     1.0700106
O           2.6855593    -1.5541196    -1.8083163
C           0.3025430    -2.0229445    -0.3620161
H           0.0122658    -2.9901599     0.0663882
H           0.4370195    -2.1364661    -1.4386659
H          -0.5000944    -1.2993460    -0.1742588
15
157_C4H9NO_0-2-3-4 (-60,) energy =    -287.8357608
N           1.5570327    -1.4595536     0.1427791
H           1.5977931    -1.1518683     1.1034146
C           2.6985851    -1.4047558    -0.6135418
C           3.9191255    -0.8221602     0.1014766
C           3.7317220     0.6221944     0.5931360
H           3.4607440     1.2857990    -0.2350350
H           4.6594571     0.9988877     1.0369674
H           2.9478271     0.7049835     1.3550991
H           4.7412373    -0.8757704    -0.6162521
H           4.1817364    -1.4715445     0.9484580
O           2.7413626    -1.7872264    -1.7766924
C           0.3045212    -1.9907244    -0.3622192
H          -0.0112872    -2.8774913     0.2011961
H           0.4710714    -2.2713481    -1.4031010
H          -0.4944234    -1.2407804    -0.3150931
15
157_C4H9NO_0-2-3-4 (-45,) energy =    -287.8356212
N           1.5577330    -1.3792103     0.0807237
H           1.5559322    -0.9094179     0.9736837
C           2.7303812    -1.4538866    -0.6223907
C           3.9448902    -0.8067362     0.0482381
C           3.7159650     0.5805639     0.6652139
H           3.2965975     1.2786134    -0.0673288
H           4.6638115     0.9978303     1.0215776
H           3.0385595     0.5530774     1.5278138
H           4.7132251    -0.7567280    -0.7275768
H           4.3176352    -1.4982897     0.8171722
O           2.8178390    -2.0206105    -1.7053405
C           0.3206739    -1.9729714    -0.3920715
H          -0.0284506    -2.7638801     0.2833612
H           0.5252858    -2.4067159    -1.3717340
H          -0.4699668    -1.2191921    -0.4894964
15
157_C4H9NO_0-2-3-4 (-30,) energy =    -287.8357174
N           1.5412308    -1.3241796     0.0313524
H           1.5078458    -0.7163861     0.8355615
C           2.7357318    -1.5071694    -0.6105422
C           3.9449150    -0.7908995    -0.0026850
C           3.6898577     0.5297414     0.7343992
H           3.1497352     1.2451397     0.1044090
H           4.6400189     0.9916853     1.0226405
H           3.1167978     0.3907571     1.6602124
H           4.6361450    -0.6347135    -0.8360615
H           4.4381897    -1.5062642     0.6700097
O           2.8560495    -2.2284791    -1.5941207
C           0.3152627    -1.9707240    -0.3995771
H          -0.0869188    -2.6248905     0.3836822
H           0.5586361    -2.5717537    -1.2766665
H          -0.4505434    -1.2334407    -0.6697941
15
157_C4H9NO_0-2-3-4 (-15,) energy =    -287.8358758
N           1.5268467    -1.2731953    -0.0169062
H           1.4696943    -0.5600867     0.6937519
C           2.7399800    -1.5478429    -0.5855645
C           3.9404293    -0.7605594    -0.0517549
C           3.6734738     0.4884684     0.7950060
H           3.0558898     1.2185545     0.2589496
H           4.6170081     0.9823353     1.0498646
H           3.1771343     0.2476861     1.7437536
H           4.5344868    -0.5025586    -0.9348587
H           4.5506012    -1.4762892     0.5147626
O           2.8871288    -2.3937441    -1.4604587
C           0.3092422    -1.9588916    -0.4093186
H          -0.1369653    -2.4935830     0.4380164
H           0.5792599    -2.6778624    -1.1839067
H          -0.4313052    -1.2571776    -0.8121852
15
157_C4H9NO_0-2-3-4 (0,) energy =    -287.8359302
N           1.5048995    -1.2181246    -0.0639253
H           1.4376454    -0.4244740     0.5543590
C           2.7310088    -1.5803734    -0.5489555
C           3.9262795    -0.7330357    -0.1020958
C           3.6778757     0.4463974     0.8435146
H           3.0101841     1.1946231     0.3989482
H           4.6207655     0.9537633     1.0728681
H           3.2466814     0.1220421     1.7985591
H           4.4051252    -0.3848276    -1.0251250
H           4.6375948    -1.4361314     0.3475795
O           2.8918926    -2.5319243    -1.3049375
C           0.2896893    -1.9337032    -0.4074265
H          -0.1986956    -2.3395206     0.4867807
H           0.5746828    -2.7563106    -1.0646537
H          -0.4210073    -1.2838706    -0.9326093
15
157_C4H9NO_0-2-3-4 (15,) energy =    -287.8358755
N           1.4992825    -1.1755563    -0.1165296
H           1.4192617    -0.3133182     0.4001543
C           2.7396149    -1.6079805    -0.4974491
C           3.9214264    -0.7042680    -0.1336545
C           3.6996785     0.4019018     0.9034570
H           2.9911158     1.1631622     0.5528748
H           4.6413572     0.9206320     1.1114996
H           3.3302865    -0.0005423     1.8538961
H           4.2785193    -0.2705014    -1.0769635
H           4.7152423    -1.3825397     0.1967754
O           2.9178149    -2.6485891    -1.1203801
C           0.2889881    -1.9189521    -0.4154090
H          -0.2435466    -2.1966118     0.5022511
H           0.5889525    -2.8247167    -0.9440231
H          -0.3885151    -1.3386199    -1.0537581
15
157_C4H9NO_0-2-3-4 (30,) energy =    -287.8357187
N           1.4992248    -1.1338433    -0.1838801
H           1.4043317    -0.2101942     0.2099955
C           2.7522946    -1.6127619    -0.4537194
C           3.9147360    -0.6560415    -0.1743965
C           3.7353230     0.3674065     0.9538189
H           2.9731500     1.1218804     0.7199152
H           4.6704735     0.9115569     1.1231538
H           3.4567163    -0.1165653     1.8964561
H           4.1392799    -0.1385277    -1.1174298
H           4.7754265    -1.3000089     0.0286462
O           2.9487466    -2.7261729    -0.9269258
C           0.2966481    -1.9075650    -0.4326050
H          -0.2806295    -2.0515194     0.4886785
H           0.6115485    -2.8796143    -0.8143415
H          -0.3450239    -1.4210396    -1.1776148
15
157_C4H9NO_0-2-3-4 (45,) energy =    -287.8356216
N           1.4895812    -1.0926874    -0.2381732
H           1.3919909    -0.1138543    -0.0135266
C           2.7476744    -1.6107779    -0.3926008
C           3.8982627    -0.6190404    -0.2026005
C           3.7912149     0.3145040     1.0117646
H           2.9616419     1.0272495     0.9252552
H           4.7065720     0.9067342     1.1162165
H           3.6503775    -0.2516234     1.9388038
H           3.9894132    -0.0234208    -1.1220636
H           4.8014257    -1.2309172    -0.1345216
O           2.9490405    -2.7831646    -0.6868235
C           0.2872808    -1.8840541    -0.4243818
H          -0.3410341    -1.8673300     0.4742039
H           0.6034657    -2.9089800    -0.6225894
H          -0.3046335    -1.5223973    -1.2745213
15
157_C4H9NO_0-2-3-4 (60,) energy =    -287.8357633
N           1.4702230    -1.0606534    -0.3363019
H           1.3704960    -0.0574934    -0.2829340
C           2.7319102    -1.5956651    -0.3469954
C           3.8662415    -0.5762704    -0.2275820
C           3.8294428     0.2588991     1.0627394
H           2.9378092     0.8939106     1.1234679
H           4.7031855     0.9170463     1.1175222
H           3.8380086    -0.3868052     1.9473812
H           3.8427232     0.0903198    -1.1011254
H           4.7936836    -1.1513333    -0.2823253
O           2.9398454    -2.7994734    -0.4395142
C           0.2717890    -1.8714628    -0.4470947
H          -0.3901876    -1.7223853     0.4144921
H           0.5909934    -2.9140866    -0.4778388
H          -0.2858968    -1.6416382    -1.3635427
15
157_C4H9NO_0-2-3-4 (75,) energy =    -287.8360926
N           1.4485571    -1.0479806    -0.4373228
H           1.3487841    -0.0497219    -0.5516428
C           2.7083808    -1.5708261    -0.3005262
C           3.8278078    -0.5319506    -0.2449040
C           3.8861338     0.1966232     1.1087742
H           2.9717039     0.7689309     1.3021087
H           4.7301270     0.8941193     1.1360228
H           4.0118158    -0.5196675     1.9275782
H           3.7039488     0.1986478    -1.0560484
H           4.7609140    -1.0716342    -0.4246452
O           2.9202673    -2.7725814    -0.1910157
C           0.2555788    -1.8730733    -0.4746798
H          -0.4416763    -1.6020124     0.3273459
H           0.5762012    -2.9066024    -0.3362689
H          -0.2633794    -1.7856471    -1.4372413
15
157_C4H9NO_0-2-3-4 (90,) energy =    -287.8365519
N           1.4218668    -1.0491216    -0.5245764
H           1.3239466    -0.0779277    -0.7820393
C           2.6746737    -1.5280320    -0.2437839
C           3.7808422    -0.4757250    -0.2479606
C           3.9642894     0.1481390     1.1461450
H           3.0636935     0.6845699     1.4658881
H           4.7991818     0.8569567     1.1476542
H           4.1745991    -0.6305540     1.8862533
H           3.5719945     0.3093663    -0.9869378
H           4.6996338    -0.9837970    -0.5540646
O           2.8902220    -2.6987164     0.0476406
C           0.2387641    -1.8892896    -0.5120623
H          -0.5030083    -1.5220447     0.2075125
H           0.5589655    -2.8896332    -0.2170565
H          -0.2274663    -1.9405319    -1.5036923
15
157_C4H9NO_0-2-3-4 (105,) energy =    -287.8370827
N           1.3919809    -1.0542185    -0.5893484
H           1.2978882    -0.1213305    -0.9628076
C           2.6271166    -1.4692389    -0.1683834
C           3.7266034    -0.4122393    -0.2301767
C           4.0582090     0.1171213     1.1742713
H           3.2011916     0.6398627     1.6141338
H           4.9003947     0.8162405     1.1383300
H           4.3249216    -0.7136641     1.8343417
H           3.4488873     0.4171406    -0.8937573
H           4.6098454    -0.8955580    -0.6605342
O           2.8372915    -2.5919382     0.2768137
C           0.2237232    -1.9147341    -0.5605902
H          -0.5717762    -1.4847194     0.0598963
H           0.5373512    -2.8673397    -0.1311283
H          -0.1708380    -2.0886568    -1.5691948
15
157_C4H9NO_0-2-3-4 (120,) energy =    -287.8375730
N           1.3612049    -1.0663838    -0.6360895
H           1.2807930    -0.1763003    -1.1048265
C           2.5649356    -1.4067187    -0.0808719
C           3.6631512    -0.3518257    -0.1962652
C           4.1532886     0.0887247     1.1900667
H           3.3623050     0.6076591     1.7434107
H           5.0089136     0.7667469     1.1043504
H           4.4560231    -0.7864590     1.7716003
H           3.3287943     0.5154481    -0.7801699
H           4.4912567    -0.8125717    -0.7480791
O           2.7562726    -2.4724587     0.4943138
C           0.2096995    -1.9496271    -0.6139266
H          -0.6405070    -1.4812069    -0.1036979
H           0.5039793    -2.8474860    -0.0685395
H          -0.0989777    -2.2307970    -1.6282606
15
157_C4H9NO_0-2-3-4 (135,) energy =    -287.8378875
N           1.3406316    -1.0833147    -0.6763052
H           1.2861731    -0.2404866    -1.2288593
C           2.4970775    -1.3434695     0.0075642
C           3.5996141    -0.2971311    -0.1540518
C           4.2455432     0.0520913     1.1908899
H           3.5328015     0.5577583     1.8519374
H           5.1072823     0.7129009     1.0502451
H           4.5778389    -0.8613318     1.6908982
H           3.2200080     0.6059026    -0.6495591
H           4.3555595    -0.7302308    -0.8226563
O           2.6519279    -2.3450312     0.6974143
C           0.2051914    -1.9873613    -0.6706081
H          -0.6933390    -1.4940032    -0.2810253
H           0.4637772    -2.8244393    -0.0205795
H          -0.0093647    -2.3673181    -1.6770432
15
157_C4H9NO_0-2-3-4 (150,) energy =    -287.8379457
N           1.3391863    -1.1057245    -0.7160594
H           1.3206159    -0.3164155    -1.3451715
C           2.4317143    -1.2730166     0.0916223
C           3.5413706    -0.2382263    -0.1057037
C           4.3263370     0.0153307     1.1826125
H           3.6941506     0.4848024     1.9440722
H           5.1807296     0.6738649     0.9943825
H           4.6900124    -0.9305043     1.5915082
H           3.1288981     0.6981385    -0.5042577
H           4.2158658    -0.6326727    -0.8790568
O           2.5319893    -2.1960043     0.8916851
C           0.2128597    -2.0209551    -0.7144027
H          -0.7178492    -1.5068413    -0.4456128
H           0.4237129    -2.7895312     0.0305027
H           0.0824026    -2.4968143    -1.6941143
15
157_C4H9NO_0-2-3-4 (165,) energy =    -287.8377714
N           1.3538710    -1.1388587    -0.7548760
H           1.3982001    -0.4289561    -1.4717265
C           2.3686120    -1.2045676     0.1626882
C           3.4868244    -0.1812269    -0.0541912
C           4.3925510    -0.0398241     1.1682334
H           3.8356889     0.3470318     2.0275935
H           5.2209188     0.6449490     0.9578870
H           4.8013419    -1.0118587     1.4550476
H           3.0509159     0.7880964    -0.3324758
H           4.0747314    -0.5102923    -0.9233951
O           2.3934401    -2.0297607     1.0678176
C           0.2292524    -2.0559986    -0.7526205
H          -0.7212363    -1.5215191    -0.6350998
H           0.3656461    -2.7306431     0.0937264
H           0.1902002    -2.6448919    -1.6773858
15
157_C4H9NO_0-2-3-4 (180,) energy =    -287.8376496
N           1.3842803    -1.1812236    -0.7939848
H           1.5049088    -0.5707221    -1.5894995
C           2.3091585    -1.1287129     0.2153333
C           3.4357392    -0.1163014    -0.0127480
C           4.4417619    -0.0924531     1.1362495
H           3.9507136     0.1668116     2.0783496
H           5.2315376     0.6406919     0.9404905
H           4.9030373    -1.0748974     1.2702116
H           2.9890176     0.8780113    -0.1551852
H           3.9381969    -0.3593578    -0.9598363
O           2.2414723    -1.8321875     1.2157556
C           0.2405794    -2.0740029    -0.7694470
H          -0.7034155    -1.5160326    -0.7980086
H           0.2925650    -2.6382362     0.1627546
H           0.2611584    -2.7745260    -1.6133436
