22
002_C11H9NO_3-4-10-9 (-165,) energy =    -554.5563819
N           0.8775719     0.1390318    -0.8215831
C          -0.3595496     0.2019943    -1.3425164
C          -1.5155616    -0.0806294    -0.6263668
C           0.9858101    -0.2097590     0.4525562
O           2.2011457    -0.3413589     1.0539714
C          -1.3780781    -0.4483876     0.7186127
C           6.0172856     0.9074536    -0.0859659
C           5.8111028    -0.0587157     0.9016671
C          -0.1116703    -0.5159292     1.2771336
C           4.5192966    -0.4588182     1.2317787
C           3.4228751     0.1032850     0.5690423
C           3.6118369     1.0766967    -0.4159281
C           4.9158267     1.4666380    -0.7329477
H          -0.4121054     0.4929027    -2.3900664
H          -2.4895423    -0.0149681    -1.1000649
H          -2.2519519    -0.6780193     1.3222122
H           7.0243564     1.2202897    -0.3466024
H           6.6567831    -0.5029630     1.4197268
H           0.0555711    -0.7950529     2.3113987
H           4.3368960    -1.2033401     2.0003648
H           2.7659367     1.5029247    -0.9340811
H           5.0630996     2.2210827    -1.5014183
22
002_C11H9NO_3-4-10-9 (-150,) energy =    -554.5569991
N           0.9645304    -0.0550899    -0.7945572
C          -0.2419222    -0.0451880    -1.3840014
C          -1.4407354    -0.1846105    -0.6942500
C           0.9968141    -0.2011259     0.5221427
O           2.1887206    -0.2698806     1.1840647
C          -1.3811518    -0.3393312     0.6963745
C           5.9664829     0.9012624    -0.1428204
C           5.7947152    -0.1788213     0.7247100
C          -0.1456910    -0.3471770     1.3263587
C           4.5150545    -0.5641125     1.1213811
C           3.4034103     0.1327133     0.6445774
C           3.5592903     1.2240405    -0.2132297
C           4.8465269     1.5957526    -0.6037316
H          -0.2343368     0.0778429    -2.4655438
H          -2.3879377    -0.1713978    -1.2234490
H          -2.2905753    -0.4502412     1.2806920
H           6.9628875     1.2006623    -0.4551291
H           6.6569390    -0.7258386     1.0964612
H          -0.0381665    -0.4625575     2.3991336
H           4.3590410    -1.3982317     1.7982447
H           2.6951676     1.7626743    -0.5783835
H           4.9699364     2.4416132    -1.2748922
22
002_C11H9NO_3-4-10-9 (-135,) energy =    -554.5573876
N           1.0220276    -0.0910484    -0.7391518
C          -0.1556254    -0.1661779    -1.3798027
C          -1.3804289    -0.2899673    -0.7339416
C           0.9972295    -0.1348599     0.5846886
O           2.1624895    -0.0974284     1.2967291
C          -1.3802312    -0.3349130     0.6659374
C           5.9309973     0.8591394    -0.2130458
C           5.7366324    -0.2675147     0.5870648
C          -0.1754686    -0.2547421     1.3482829
C           4.4603969    -0.5896491     1.0502885
C           3.3813499     0.2240050     0.7093117
C           3.5606214     1.3599282    -0.0820658
C           4.8402592     1.6672823    -0.5431452
H          -0.1018559    -0.1272811    -2.4663565
H          -2.3024124    -0.3482804    -1.3031198
H          -2.3120927    -0.4294547     1.2168883
H           6.9242990     1.1079394    -0.5757375
H           6.5780452    -0.9014613     0.8533638
H          -0.1142062    -0.2828708     2.4305330
H           4.2868382    -1.4598960     1.6753951
H           2.7132066     1.9847804    -0.3374329
H           4.9838833     2.5486210    -1.1625004
22
002_C11H9NO_3-4-10-9 (-120,) energy =    -554.5574036
N           1.1168396     0.1703028     1.0773545
C           0.0366560     0.0418614     1.8647987
C          -1.2152329    -0.3470345     1.4023889
C           0.9631538    -0.0952385    -0.2112115
O           2.0212761     0.0368271    -1.0659442
C          -1.3513347    -0.6217005     0.0355348
C           5.9245932     0.8448684     0.1628798
C           5.2293473     1.7475210    -0.6427220
C          -0.2484498    -0.4984727    -0.7961986
C           3.9101894     1.4840977    -1.0165542
C           3.2986503     0.3112603    -0.5817477
C           3.9822900    -0.6037599     0.2186403
C           5.2971868    -0.3281391     0.5910848
H           0.1946178     0.2671146     2.9180530
H          -2.0547518    -0.4332103     2.0844674
H          -2.3094121    -0.9303469    -0.3740340
H           6.9504358     1.0516647     0.4545582
H           5.7105259     2.6607365    -0.9822724
H          -0.2941470    -0.6990342    -1.8608961
H           3.3509252     2.1709133    -1.6439561
H           3.4866008    -1.5119545     0.5439509
H           5.8344862    -1.0359757     1.2165074
22
002_C11H9NO_3-4-10-9 (-105,) energy =    -554.5572795
N           1.1358524     0.2091764     1.0290314
C           0.0455273     0.1852501     1.8129154
C          -1.2143177    -0.2035229     1.3729121
C           0.9830278    -0.1635761    -0.2328123
O           2.0568644    -0.1515419    -1.0779160
C          -1.3490712    -0.5929973     0.0339491
C           5.8995528     0.8762790     0.1789757
C           5.1179860     1.7944367    -0.5242554
C          -0.2364347    -0.5775494    -0.7936035
C           3.8192240     1.4611059    -0.9128881
C           3.3162603     0.2031353    -0.5930916
C           4.0851356    -0.7260670     0.1048640
C           5.3801938    -0.3824488     0.4918143
H           0.2023077     0.4970503     2.8440588
H          -2.0615731    -0.2027734     2.0508559
H          -2.3136000    -0.9056642    -0.3571056
H           6.9099841     1.1384191     0.4799470
H           5.5172545     2.7739749    -0.7729753
H          -0.2803779    -0.8686496    -1.8372768
H           3.1958523     2.1586617    -1.4633616
H           3.6678604    -1.7007106     0.3364447
H           5.9852516    -1.1018576     1.0369571
22
002_C11H9NO_3-4-10-9 (-90,) energy =    -554.5572130
N           1.1340975     0.2591310     0.9973855
C           0.0280211     0.3351755     1.7555910
C          -1.2324879    -0.0625770     1.3256967
C           0.9967305    -0.2249046    -0.2280806
O           2.0902468    -0.3247454    -1.0411848
C          -1.3495735    -0.5708130     0.0254199
C           5.8873748     0.8971985     0.1862334
C           5.0083358     1.8177720    -0.3886727
C          -0.2214991    -0.6584692    -0.7763625
C           3.7259306     1.4227930    -0.7714628
C           3.3340048     0.1016000    -0.5715089
C           4.1993524    -0.8281905    -0.0012055
C           5.4803947    -0.4247605     0.3782082
H           0.1724131     0.7368679     2.7570250
H          -2.0928986     0.0209857     1.9815910
H          -2.3140316    -0.8946555    -0.3565712
H           6.8858502     1.2080880     0.4806834
H           5.3207429     2.8470591    -0.5428888
H          -0.2526492    -1.0426750    -1.7899438
H           3.0305805     2.1226684    -1.2239169
H           3.8655948    -1.8518174     0.1357036
H           6.1607139    -1.1462203     0.8226014
22
002_C11H9NO_3-4-10-9 (-75,) energy =    -554.5573173
N           1.1063186     0.3157019     0.9949990
C          -0.0245822     0.4794389     1.7006172
C          -1.2765271     0.0653659     1.2609894
C           1.0035314    -0.2747483    -0.1862930
O           2.1235545    -0.4789579    -0.9422761
C          -1.3576831    -0.5566755     0.0083949
C           5.9004357     0.9096525     0.1576831
C           4.9238091     1.8170569    -0.2610051
C          -0.2031079    -0.7346498    -0.7389037
C           3.6467984     1.3722528    -0.6010640
C           3.3558544     0.0119809    -0.5108521
C           4.3181477    -0.9049562    -0.0973992
C           5.5951750    -0.4499111     0.2363626
H           0.0918034     0.9673881     2.6667492
H          -2.1579818     0.2226248     1.8739830
H          -2.3140919    -0.8972909    -0.3791925
H           6.8947818     1.2613076     0.4182052
H           5.1568012     2.8763721    -0.3271753
H          -0.2054108    -1.2081939    -1.7144494
H           2.8795295     2.0645897    -0.9318336
H           4.0605890    -1.9581867    -0.0466706
H           6.3506874    -1.1616402     0.5579151
22
002_C11H9NO_3-4-10-9 (-60,) energy =    -554.5574315
N           1.0620998     0.3863651     1.0029761
C          -0.0962207     0.6224000     1.6401565
C          -1.3327175     0.1773884     1.1871147
C           1.0044812    -0.3102533    -0.1220713
O           2.1506414    -0.6034835    -0.8056321
C          -1.3667965    -0.5574804    -0.0049852
C           5.9249815     0.9170456     0.1099979
C           4.8714187     1.8010975    -0.1373749
C          -0.1828837    -0.8107206    -0.6813007
C           3.5922618     1.3206666    -0.4145606
C           3.3759548    -0.0574911    -0.4329099
C           4.4164291    -0.9511629    -0.1904454
C           5.6944025    -0.4588330     0.0798908
H          -0.0159053     1.1967544     2.5613907
H          -2.2377358     0.3967004     1.7441426
H          -2.3091086    -0.9265353    -0.4009120
H           6.9192390     1.2997356     0.3225281
H           5.0451198     2.8736574    -0.1185814
H          -0.1482561    -1.3726666    -1.6080494
H           2.7701327     2.0003151    -0.6083316
H           4.2143987    -2.0171686    -0.2211747
H           6.5079035    -1.1543513     0.2677004
22
002_C11H9NO_3-4-10-9 (-45,) energy =    -554.5572968
N           1.0115872     0.4287585     1.0336024
C          -0.1747317     0.7232375     1.5893547
C          -1.3922449     0.2625280     1.1015739
C           1.0037055    -0.3427209    -0.0435386
O           2.1767824    -0.7150746    -0.6356585
C          -1.3746164    -0.5523186    -0.0373884
C           5.9495094     0.9284908     0.0469822
C           4.8458016     1.7794093    -0.0452025
C          -0.1605567    -0.8655533    -0.6301148
C           3.5631850     1.2681676    -0.2432977
C           3.3953857    -0.1142898    -0.3431611
C           4.4881842    -0.9761528    -0.2546971
C           5.7658205    -0.4507816    -0.0615110
H          -0.1344323     1.3591032     2.4719954
H          -2.3219213     0.5310314     1.5925079
H          -2.3002077    -0.9361822    -0.4578010
H           6.9438420     1.3379489     0.2009591
H           4.9802152     2.8548117     0.0352699
H          -0.0857253    -1.4903775    -1.5131715
H           2.7079165     1.9287728    -0.3111456
H           4.3222504    -2.0452280    -0.3427282
H           6.6164326    -1.1236285     0.0059750
22
002_C11H9NO_3-4-10-9 (-30,) energy =    -554.5568111
N           0.9574974     0.5001087     1.0439653
C          -0.2553972     0.8300835     1.5168882
C          -1.4459800     0.3175316     1.0153415
C           1.0052695    -0.3600686     0.0368667
O           2.2013423    -0.7845544    -0.4644174
C          -1.3709395    -0.5911121    -0.0477775
C           5.9881464     0.9145924    -0.0356608
C           4.8687582     1.7442501     0.0440982
C          -0.1287771    -0.9414477    -0.5548067
C           3.5774410     1.2251731    -0.0664991
C           3.4183760    -0.1491328    -0.2597722
C           4.5301098    -0.9907540    -0.3426943
C           5.8123251    -0.4565611    -0.2319438
H          -0.2598510     1.5396586     2.3423579
H          -2.3989299     0.6181829     1.4382964
H          -2.2736456    -1.0183922    -0.4759227
H           6.9868569     1.3322375     0.0544485
H           4.9943863     2.8131612     0.1953767
H          -0.0093119    -1.6387907    -1.3764608
H           2.7152000     1.8731187     0.0077409
H           4.3707018    -2.0533046    -0.4970397
H           6.6735278    -1.1160327    -0.2976136
22
002_C11H9NO_3-4-10-9 (-15,) energy =    -554.5562860
N           0.8624026     0.7255430     0.8879514
C          -0.3792152     1.0473026     1.2902451
C          -1.5209807     0.3604295     0.9001525
C           0.9899924    -0.3086997     0.0689625
O           2.2069445    -0.7322206    -0.3701954
C          -1.3640332    -0.7299138     0.0337297
C           6.0469884     0.8739155    -0.0535346
C           4.9617991     1.6889442     0.2648923
C          -0.0935345    -1.0777030    -0.3947926
C           3.6489063     1.2131965     0.1978549
C           3.4352062    -0.1095619    -0.2005661
C           4.5165528    -0.9374612    -0.5243441
C           5.8162455    -0.4458051    -0.4502537
H          -0.4467858     1.9016542     1.9612075
H          -2.4990315     0.6650973     1.2577807
H          -2.2264166    -1.2995410    -0.3017111
H           7.0605280     1.2600669     0.0068889
H           5.1283145     2.7171930     0.5754948
H           0.0885533    -1.9115986    -1.0633725
H           2.8149740     1.8449133     0.4626674
H           4.3150793    -1.9582523    -0.8336465
H           6.6490268    -1.0965326    -0.7031676
22
002_C11H9NO_3-4-10-9 (0,) energy =    -554.5561404
N           0.8063524     0.8572101     0.7022588
C          -0.4491106     1.1928664     1.0475990
C          -1.5579764     0.3943158     0.8053721
C           0.9822466    -0.3080195     0.0951081
O           2.2096012    -0.7441858    -0.2964266
C          -1.3511608    -0.8340359     0.1623176
C           6.0608869     0.8478068    -0.0440003
C           5.0057711     1.5934833     0.4780247
C          -0.0663348    -1.1996415    -0.2020898
C           3.6879671     1.1271681     0.4308518
C           3.4390965    -0.1171847    -0.1564465
C           4.4916836    -0.8758455    -0.6846345
C           5.7952226    -0.3940153    -0.6276941
H          -0.5555959     2.1556886     1.5437727
H          -2.5488408     0.7175453     1.1070209
H          -2.1863817    -1.4957760    -0.0502207
H           7.0778559     1.2268940     0.0019732
H           5.1990268     2.5608375     0.9346429
H           0.1537628    -2.1365340    -0.7013541
H           2.8743395     1.7080628     0.8362735
H           4.2639405    -1.8375365    -1.1335697
H           6.6040599    -0.9909425    -1.0405211
22
002_C11H9NO_3-4-10-9 (15,) energy =    -554.5562859
N           0.7955435     0.9295090     0.4679001
C          -0.4606806     1.3047855     0.7646511
C          -1.5575058     0.4561677     0.6983284
C           0.9848315    -0.3277987     0.0937099
O           2.2139296    -0.7964550    -0.2567802
C          -1.3355582    -0.8692516     0.3005996
C           6.0438271     0.8472667    -0.0211556
C           5.0127640     1.4724558     0.6783534
C          -0.0484740    -1.2777608    -0.0080540
C           3.7024445     0.9872589     0.6318705
C           3.4360113    -0.1509077    -0.1347704
C           4.4631307    -0.7884896    -0.8405256
C           5.7608606    -0.2895597    -0.7826431
H          -0.5791424     2.3431673     1.0686287
H          -2.5503383     0.8148687     0.9491665
H          -2.1606559    -1.5731345     0.2337883
H           7.0556443     1.2399083     0.0244721
H           5.2199641     2.3579414     1.2737408
H           0.1827194    -2.2892853    -0.3225471
H           2.9061523     1.4867197     1.1620399
H           4.2226007    -1.6722764    -1.4230675
H           6.5512959    -0.7912461    -1.3344144
22
002_C11H9NO_3-4-10-9 (30,) energy =    -554.5568109
N           0.8248096     0.9262821     0.1892585
C          -0.4190527     1.3639002     0.4442319
C          -1.5193484     0.5264595     0.5845538
C           0.9982299    -0.3825062     0.0734959
O           2.2216107    -0.9016467    -0.2355022
C          -1.3124270    -0.8528137     0.4565627
C           5.9848131     0.8837206     0.0148577
C           4.9747198     1.3275179     0.8694872
C          -0.0350567    -1.3264655     0.1983905
C           3.6900868     0.7837474     0.8116239
C           3.4258874    -0.2206351    -0.1225821
C           4.4280697    -0.6750317    -0.9830859
C           5.7054531    -0.1229715    -0.9114795
H          -0.5270530     2.4432560     0.5350534
H          -2.5033196     0.9359072     0.7883902
H          -2.1403739    -1.5489783     0.5596020
H           6.9789850     1.3179541     0.0699794
H           5.1819100     2.1096590     1.5951292
H           0.1849285    -2.3826335     0.0897936
H           2.9102932     1.1413436     1.4694476
H           4.1894767    -1.4594828    -1.6943751
H           6.4810318    -0.4808377    -1.5832693
22
002_C11H9NO_3-4-10-9 (45,) energy =    -554.5572967
N           0.8745587     0.8817263     0.1116111
C          -0.3645399     1.3677397     0.2884155
C          -1.4877209     0.5708715     0.4784163
C           1.0189552    -0.4352827     0.1262744
O           2.2445997    -0.9984465    -0.0883880
C          -1.3094930    -0.8182103     0.4887895
C           5.9316794     0.9504793    -0.0117514
C           4.9765785     1.2681784     0.9565511
C          -0.0374384    -1.3419710     0.3125220
C           3.7208510     0.6609163     0.9482554
C           3.4275070    -0.2699607    -0.0500656
C           4.3716957    -0.5982321    -1.0224350
C           5.6253476     0.0129429    -0.9992362
H          -0.4495784     2.4528645     0.2717941
H          -2.4668314     1.0183166     0.6146526
H          -2.1559486    -1.4836563     0.6354238
H           6.9065797     1.4293854     0.0046919
H           5.2079599     1.9949529     1.7306989
H           0.1604553    -2.4081027     0.3126509
H           2.9799301     0.9104493     1.6974863
H           4.1120800    -1.3306345    -1.7803124
H           6.3604739    -0.2448013    -1.7568552
22
002_C11H9NO_3-4-10-9 (60,) energy =    -554.5574318
N           0.9275759     0.8318578     0.0767238
C          -0.3084902     1.3508233     0.1543804
C          -1.4559001     0.5900829     0.3469004
C           1.0424351    -0.4824292     0.1951280
O           2.2709034    -1.0735058     0.0995794
C          -1.3074570    -0.7974673     0.4684119
C           5.8935792     0.9871299    -0.0524503
C           5.0261203     1.2043142     1.0213894
C          -0.0398828    -1.3552435     0.3943214
C           3.7950588     0.5528702     1.0814406
C           3.4368905    -0.3139874     0.0484389
C           4.2914891    -0.5418871    -1.0274790
C           5.5243669     0.1112363    -1.0739016
H          -0.3698633     2.4329749     0.0534534
H          -2.4309522     1.0631763     0.4007625
H          -2.1739455    -1.4352467     0.6211187
H           6.8522466     1.4967158    -0.0901389
H           5.3094392     1.8829808     1.8214077
H           0.1352999    -2.4217425     0.4825569
H           3.1169764     0.7150951     1.9117937
H           3.9841954    -1.2288596    -1.8096934
H           6.1935941    -0.0663152    -1.9113912
22
002_C11H9NO_3-4-10-9 (75,) energy =    -554.5573172
N           0.9624349     0.7935492     0.0283442
C          -0.2707610     1.3248258     0.0026489
C          -1.4328099     0.5895678     0.2053558
C           1.0579415    -0.5066168     0.2633700
O           2.2872204    -1.1031899     0.2884518
C          -1.3040974    -0.7834921     0.4515998
C           5.8587794     1.0202817    -0.0809966
C           5.1052929     1.1307991     1.0905466
C          -0.0403895    -1.3536488     0.4847847
C           3.8933986     0.4527946     1.2164818
C           3.4408126    -0.3303340     0.1558228
C           4.1804098    -0.4524116    -1.0171378
C           5.3948212     0.2268734    -1.1312575
H          -0.3168740     2.3947614    -0.1927431
H          -2.4047384     1.0709497     0.1725834
H          -2.1832373    -1.4005059     0.6169893
H           6.8039638     1.5480240    -0.1724994
H           5.4631279     1.7446009     1.9127477
H           0.1198941    -2.4097306     0.6717432
H           3.2994832     0.5256931     2.1216904
H           3.8028400    -1.0774392    -1.8202534
H           5.9772248     0.1336927    -2.0438752
22
002_C11H9NO_3-4-10-9 (90,) energy =    -554.5572130
N           0.9827851     0.7642436    -0.0232042
C          -0.2477558     1.2865197    -0.1538520
C          -1.4186689     0.5680568     0.0575003
C           1.0660647    -0.5102724     0.3283750
O           2.2938887    -1.0916230     0.4745189
C          -1.3019195    -0.7778690     0.4284273
C           5.8385457     1.0339078    -0.1045628
C           5.2156872     1.0400779     1.1455121
C          -0.0417525    -1.3391286     0.5700505
C           4.0135210     0.3579279     1.3367524
C           3.4429614    -0.3263349     0.2665296
C           4.0525106    -0.3432206    -0.9851685
C           5.2550311     0.3412411    -1.1674812
H          -0.2839735     2.3352915    -0.4434083
H          -2.3877639     1.0412103    -0.0627806
H          -2.1882945    -1.3812452     0.6051931
H           6.7757156     1.5642000    -0.2488192
H           5.6666859     1.5751548     1.9768406
H           0.1088196    -2.3744369     0.8553502
H           3.5171300     0.3474921     2.3019148
H           3.5852580    -0.8908756    -1.7973876
H           5.7362274     0.3306271    -2.1417290
22
002_C11H9NO_3-4-10-9 (105,) energy =    -554.5572796
N           0.9716385     0.7638133    -0.0775977
C          -0.2599207     1.2485083    -0.3059858
C          -1.4273306     0.5267550    -0.0864997
C           1.0595211    -0.4754916     0.3818320
O           2.2877740    -1.0162947     0.6398070
C          -1.3063387    -0.7814912     0.3998156
C           5.8493265     1.0176036    -0.1250275
C           5.3489635     0.9351820     1.1754871
C          -0.0446932    -1.3038630     0.6415553
C           4.1389236     0.2848039     1.4240836
C           3.4408443    -0.2812553     0.3611899
C           3.9288596    -0.2114447    -0.9421141
C           5.1368290     0.4434829    -1.1808489
H          -0.2999814     2.2690149    -0.6828430
H          -2.3974509     0.9692418    -0.2878289
H          -2.1898802    -1.3859613     0.5867459
H           6.7913632     1.5241238    -0.3155299
H           5.8997103     1.3771088     2.0014151
H           0.1097321    -2.3094566     1.0169169
H           3.7337675     0.2063099     2.4279940
H           3.3651267    -0.6663138    -1.7501788
H           5.5230748     0.5023949    -2.1948363
22
002_C11H9NO_3-4-10-9 (120,) energy =    -554.5574038
N           0.9419494     0.7645697    -0.1394233
C          -0.2925337     1.1907283    -0.4524243
C          -1.4477427     0.4563950    -0.2108194
C           1.0464743    -0.4269561     0.4296109
O           2.2747497    -0.9065525     0.7883929
C          -1.3099717    -0.8004924     0.3922012
C           5.8782777     0.9818511    -0.1312480
C           5.4810533     0.8101299     1.1953658
C          -0.0444743    -1.2620326     0.7218359
C           4.2551545     0.2105986     1.4901918
C           3.4368725    -0.2176507     0.4481456
C           3.8224986    -0.0588854    -0.8827647
C           5.0460592     0.5464231    -1.1659695
H          -0.3456731     2.1732121    -0.9181976
H          -2.4211165     0.8506827    -0.4838037
H          -2.1832659    -1.4127215     0.6006419
H           6.8316609     1.4500997    -0.3592912
H           6.1232879     1.1433751     2.0060829
H           0.1227925    -2.2262992     1.1888580
H           3.9269350     0.0650800     2.5145252
H           3.1698833    -0.4017981    -1.6782483
H           5.3510776     0.6751503    -2.2009890
22
002_C11H9NO_3-4-10-9 (135,) energy =    -554.5573875
N           0.8868381     0.7905551    -0.1943332
C          -0.3516071     1.1378112    -0.5798451
C          -1.4839188     0.3733134    -0.3229107
C           1.0203764    -0.3511788     0.4642503
O           2.2478939    -0.7467384     0.9147522
C          -1.3168347    -0.8291015     0.3756273
C           5.9122874     0.9344857    -0.1537819
C           5.5892991     0.6921236     1.1819784
C          -0.0457850    -1.2093068     0.7797914
C           4.3426638     0.1639551     1.5196866
C           3.4231173    -0.1217759     0.5119928
C           3.7344507     0.1057299    -0.8296613
C           4.9815861     0.6392642    -1.1529778
H          -0.4281725     2.0805613    -1.1187028
H          -2.4619278     0.7039340    -0.6569821
H          -2.1709313    -1.4625645     0.5994439
H           6.8818935     1.3483122    -0.4159038
H           6.3065225     0.9143340     1.9674655
H           0.1440352    -2.1290929     1.3217985
H           4.0713847    -0.0342880     2.5518306
H           3.0108809    -0.1232513    -1.6028288
H           5.2268502     0.8213741    -2.1958906
22
002_C11H9NO_3-4-10-9 (150,) energy =    -554.5569989
N           0.8322859     0.8091246    -0.2629600
C          -0.4099062     1.0689651    -0.7016649
C          -1.5146236     0.2770491    -0.4103664
C           0.9990748    -0.2719969     0.4849559
O           2.2240655    -0.5724359     1.0071456
C          -1.3137901    -0.8592418     0.3832479
C           5.9649105     0.8610391    -0.1571184
C           5.6819503     0.5401680     1.1716716
C          -0.0379100    -1.1494932     0.8428428
C           4.4105922     0.0957269     1.5314812
C           3.4181017    -0.0242785     0.5572156
C           3.6892166     0.2798660    -0.7788759
C           4.9658651     0.7264365    -1.1229574
H          -0.5132439     1.9627479    -1.3143579
H          -2.4970878     0.5369372    -0.7906910
H          -2.1451140    -1.5112493     0.6373520
H           6.9543559     1.2103360    -0.4381701
H           6.4506816     0.6344641     1.9339132
H           0.1775659    -2.0150035     1.4594310
H           4.1704163    -0.1629480     2.5579536
H           2.9177311     0.1830749    -1.5309459
H           5.1776028     0.9681913    -2.1611739
22
002_C11H9NO_3-4-10-9 (165,) energy =    -554.5563819
N           0.7844530     0.7306620    -0.4529947
C          -0.4677341     0.8999795    -0.9103370
C          -1.5577546     0.1587553    -0.4726678
C           0.9769211    -0.2051478     0.4657121
O           2.2037766    -0.4189719     1.0181303
C          -1.3319774    -0.8244347     0.4996885
C           6.0220396     0.8201243    -0.1251280
C           5.7446087     0.3411937     1.1574769
C          -0.0476112    -1.0184356     0.9824561
C           4.4497768    -0.0395518     1.4984446
C           3.4204630     0.0626938     0.5564370
C           3.6830839     0.5325154    -0.7334091
C           4.9892438     0.9088642    -1.0578344
H          -0.5897769     1.6751257    -1.6646616
H          -2.5482377     0.3404432    -0.8767372
H          -2.1514779    -1.4320224     0.8738200
H           7.0312511     1.1194092    -0.3932848
H           6.5371781     0.2610472     1.8966169
H           0.1864408    -1.7632982     1.7347745
H           4.2140982    -0.4200805     2.4873635
H           2.8865291     0.6206300    -1.4568969
H           5.1929419     1.2775959    -2.0598172
22
002_C11H9NO_3-4-10-9 (180,) energy =    -554.5561404
N           0.7957390     0.4671518    -0.7067167
C          -0.4606816     0.5680228    -1.1751227
C          -1.5682378     0.0209305    -0.5427236
C           0.9739945    -0.1965521     0.4269046
O           2.2024575    -0.3578809     0.9879821
C          -1.3589481    -0.6771054     0.6548107
C           6.0517118     0.8528962    -0.0830791
C           5.7885274     0.1131706     1.0731822
C          -0.0731138    -0.7931771     1.1551924
C           4.4855968    -0.2636374     1.3813770
C           3.4311445     0.0975651     0.5327545
C           3.6774318     0.8374203    -0.6279446
C           4.9947054     1.2062408    -0.9195494
H          -0.5690523     1.1193476    -2.1072491
H          -2.5600141     0.1343562    -0.9679207
H          -2.1931362    -1.1241604     1.1886030
H           7.0682338     1.1486567    -0.3265027
H           6.5988823    -0.1723805     1.7385752
H           0.1488377    -1.3209435     2.0758848
H           4.2597798    -0.8381878     2.2742182
H           2.8623221     1.1133175    -1.2785535
H           5.1860170     1.7814215    -1.8218715
