23
218_C8H11NO2S_4-5-18-16 (-165,) energy =    -914.7875747
C           1.2410241    -2.2979835    -0.1377767
H           0.4547535    -3.0030953     0.1420910
H           1.7609241    -2.6426586    -1.0330405
H           0.8236644    -1.3015275    -0.2915595
S           2.4009484    -2.2228613     1.2446100
N           3.6232249    -1.1804732     0.6661245
C           3.6870413     0.1638644     1.2503046
H           3.7949709     0.9059599     0.4524028
H           4.5297805     0.2566706     1.9456447
H           2.7683191     0.3553270     1.7997734
O           1.7303566    -1.5135754     2.3355009
O           2.9490957    -3.5629231     1.4491970
C           6.8027928    -2.3868690    -1.8917281
H           7.6133919    -2.6798427    -2.5521724
C           6.8508231    -1.1813846    -1.1967993
H           7.7051417    -0.5186448    -1.3069115
C           5.8126823    -0.8027516    -0.3452755
H           5.8928961     0.1398849     0.1803308
C           4.6857613    -1.6273996    -0.1718833
C           4.6471105    -2.8492835    -0.8714738
H           3.8309758    -3.5443353    -0.7319037
C           5.6941315    -3.2145596    -1.7138390
H           5.6358390    -4.1672872    -2.2334392
23
218_C8H11NO2S_4-5-18-16 (-150,) energy =    -914.7874642
C           1.1584231    -2.3175324     0.0611199
H           0.4060848    -3.0095281     0.4471809
H           1.5650411    -2.6844050    -0.8825663
H           0.7296920    -1.3217508    -0.0642310
S           2.4779356    -2.2273248     1.2911887
N           3.5901918    -1.1426718     0.5815163
C           3.5979149     0.2264309     1.1113164
H           3.8195623     0.9174872     0.2928524
H           4.3394121     0.3588140     1.9084863
H           2.6178318     0.4596036     1.5231866
O           1.9228085    -1.5527413     2.4661808
O           3.0889618    -3.5507486     1.3960508
C           6.8747964    -2.3613643    -1.8243982
H           7.7113745    -2.6587191    -2.4497091
C           6.9480577    -1.2144347    -1.0381800
H           7.8478238    -0.6049025    -1.0403958
C           5.8763868    -0.8326874    -0.2299040
H           5.9733229     0.0567793     0.3805100
C           4.6956691    -1.5932895    -0.1994318
C           4.6248374    -2.7471684    -1.0005160
H           3.7428917    -3.3738262    -0.9910449
C           5.7061539    -3.1239370    -1.7918345
H           5.6257430    -4.0247178    -2.3943534
23
218_C8H11NO2S_4-5-18-16 (-135,) energy =    -914.7878798
C           1.1101139    -2.3620145     0.2332672
H           0.4007544    -3.0317419     0.7253899
H           1.3870606    -2.7522637    -0.7473011
H           0.6849132    -1.3605480     0.1454174
S           2.5800695    -2.2849441     1.2789354
N           3.5716095    -1.1697955     0.4423524
C           3.5276540     0.2107615     0.9420148
H           3.8602892     0.8714242     0.1374452
H           4.1559699     0.3657325     1.8269287
H           2.5030215     0.4707367     1.2095597
O           2.1795774    -1.6491840     2.5366476
O           3.2166560    -3.6001330     1.2599688
C           6.9658635    -2.3749064    -1.8007926
H           7.8305359    -2.6708270    -2.3875926
C           7.0429574    -1.2958521    -0.9230014
H           7.9720943    -0.7426004    -0.8152476
C           5.9355527    -0.9179409    -0.1621223
H           6.0262723    -0.0882280     0.5298238
C           4.7221412    -1.6112319    -0.2807360
C           4.6442533    -2.6882125    -1.1781740
H           3.7171737    -3.2370083    -1.2923456
C           5.7600780    -3.0700231    -1.9170624
H           5.6791635    -3.9116386    -2.5996136
23
218_C8H11NO2S_4-5-18-16 (-120,) energy =    -914.7883690
C           1.0091429    -2.2402106     0.4663063
H           0.3599883    -2.8832695     1.0651728
H           1.0953941    -2.6210520    -0.5522146
H           0.6272165    -1.2176825     0.4684761
S           2.6389192    -2.2750868     1.2410099
N           3.5105498    -1.1658038     0.2611335
C           3.4278026     0.2272500     0.7210041
H           3.8066423     0.8660248    -0.0802556
H           3.9907282     0.4153293     1.6422879
H           2.3836704     0.4900298     0.9070852
O           2.4959802    -1.6999488     2.5829218
O           3.2037959    -3.6087628     1.0453835
C           7.0618825    -2.3787266    -1.7144992
H           7.9662377    -2.6788162    -2.2360575
C           7.1006819    -1.3511099    -0.7737922
H           8.0369221    -0.8456468    -0.5528977
C           5.9416227    -0.9683098    -0.0963049
H           5.9928372    -0.1807614     0.6479275
C           4.7234308    -1.6032773    -0.3689869
C           4.6838901    -2.6253268    -1.3280589
H           3.7425513    -3.1131944    -1.5533081
C           5.8481769    -3.0167113    -1.9826922
H           5.8025493    -3.8151055    -2.7183103
23
218_C8H11NO2S_4-5-18-16 (-105,) energy =    -914.7885441
C           0.9840360    -2.2421341     0.6046181
H           0.4062817    -2.8812239     1.2763728
H           0.9662549    -2.6351531    -0.4124346
H           0.5969469    -1.2222564     0.6369766
S           2.6860349    -2.2693722     1.2039391
N           3.4461508    -1.1753581     0.1111386
C           3.3339666     0.2338001     0.5214751
H           3.7142395     0.8481773    -0.2978862
H           3.8790975     0.4655177     1.4431672
H           2.2818816     0.4861720     0.6793250
O           2.6873077    -1.6905597     2.5531524
O           3.2309991    -3.6029097     0.9546910
C           7.1011924    -2.3833822    -1.6662996
H           8.0323470    -2.6864921    -2.1367254
C           7.1103709    -1.4451644    -0.6342570
H           8.0488002    -1.0173717    -0.2920212
C           5.9169009    -1.0587989    -0.0226426
H           5.9363842    -0.3416897     0.7917013
C           4.6999142    -1.5977016    -0.4568559
C           4.6920249    -2.5325932    -1.4987327
H           3.7457644    -2.9420168    -1.8356352
C           5.8879505    -2.9295091    -2.0919339
H           5.8702604    -3.6592653    -2.8967057
23
218_C8H11NO2S_4-5-18-16 (-90,) energy =    -914.7897317
C           2.1892781     0.1846235     0.2693682
H           1.2578135     0.6625735    -0.0421730
H           3.0134605     0.5148331    -0.3648045
H           2.3857783     0.4008672     1.3217321
S           1.9549936    -1.5984206     0.0566432
N           3.4040744    -2.3407371     0.5402973
C           3.6341408    -2.4745807     1.9856052
H           3.9966951    -1.5513012     2.4615477
H           4.3823279    -3.2578307     2.1329556
H           2.7013232    -2.7800815     2.4596351
O           0.9340743    -2.0202824     1.0181697
O           1.8107706    -1.8446219    -1.3769550
C           6.8381015    -1.8903754    -1.9013360
H           7.7232387    -1.7915075    -2.5235895
C           5.9264187    -2.9216768    -2.1377968
H           6.1005437    -3.6283337    -2.9443791
C           4.7942536    -3.0563427    -1.3351759
H           4.0758632    -3.8511821    -1.5032239
C           4.5576360    -2.1446383    -0.3010899
C           5.4748889    -1.1134044    -0.0604498
H           5.3073681    -0.4151330     0.7551815
C           6.6122045    -0.9891312    -0.8596096
H           7.3205215    -0.1879100    -0.6670908
23
218_C8H11NO2S_4-5-18-16 (-75,) energy =    -914.7909586
C           2.1648223     0.0911424     0.1188663
H           1.2267365     0.5197489    -0.2405766
H           2.9867793     0.3689589    -0.5431711
H           2.3558354     0.4141683     1.1443661
S           1.9658504    -1.7077376     0.0858804
N           3.4565210    -2.3456136     0.6068939
C           3.6765418    -2.3633061     2.0600403
H           3.8964364    -1.3741647     2.4885422
H           4.5227349    -3.0255866     2.2582049
H           2.7856702    -2.7655162     2.5412477
O           0.9848627    -2.0677130     1.1114006
O           1.7859555    -2.0948068    -1.3122890
C           6.8387974    -1.8679046    -1.9026731
H           7.7098069    -1.7620641    -2.5433073
C           5.8219269    -2.7634912    -2.2421702
H           5.8998755    -3.3589916    -3.1475599
C           4.7097754    -2.9157901    -1.4163083
H           3.9192804    -3.6139619    -1.6646300
C           4.5947614    -2.1485360    -0.2495733
C           5.6141448    -1.2482091     0.0902067
H           5.5406241    -0.6577243     0.9987368
C           6.7339591    -1.1157342    -0.7322356
H           7.5217546    -0.4197119    -0.4569068
23
218_C8H11NO2S_4-5-18-16 (-60,) energy =    -914.7912566
C           2.1002698     0.0062027    -0.0412869
H           1.1370799     0.3707336    -0.4048913
H           2.8892849     0.2338949    -0.7602178
H           2.3221000     0.4372340     0.9371802
S           1.9587580    -1.7903330     0.1209077
N           3.4948662    -2.3067568     0.6522237
C           3.7142538    -2.2706141     2.1042738
H           3.8943135    -1.2592506     2.4978842
H           4.5852734    -2.8929228     2.3233407
H           2.8398308    -2.6896677     2.5993316
O           1.0323141    -2.0758943     1.2175740
O           1.7280932    -2.3265615    -1.2195140
C           6.8569448    -1.8428276    -1.8952404
H           7.7220623    -1.7360166    -2.5434828
C           5.7489064    -2.5838786    -2.3121849
H           5.7502472    -3.0614436    -3.2881962
C           4.6419693    -2.7417973    -1.4808089
H           3.7913967    -3.3319266    -1.7964071
C           4.6225345    -2.1307516    -0.2169284
C           5.7336296    -1.3808459     0.1989041
H           5.7373162    -0.9035232     1.1734038
C           6.8457052    -1.2487861    -0.6338389
H           7.7011768    -0.6719710    -0.2925612
23
218_C8H11NO2S_4-5-18-16 (-45,) energy =    -914.7906646
C           2.0392222    -0.1162284    -0.2687666
H           1.0584801     0.1697445    -0.6550447
H           2.8019162     0.0037298    -1.0400705
H           2.2835800     0.4666967     0.6213652
S           1.9340937    -1.8628050     0.1877894
N           3.5080347    -2.2630961     0.7113569
C           3.7380554    -2.2398318     2.1609556
H           3.9616613    -1.2355083     2.5482515
H           4.5821051    -2.8998667     2.3765442
H           2.8503378    -2.6196805     2.6621686
O           1.0728983    -1.9774615     1.3657796
O           1.6279109    -2.6125715    -1.0305299
C           6.8525215    -1.8131544    -1.8694770
H           7.7121226    -1.7044550    -2.5244263
C           5.6682182    -2.3802332    -2.3429620
H           5.6021908    -2.7228956    -3.3721699
C           4.5634063    -2.5405226    -1.5086472
H           3.6617501    -3.0092599    -1.8798660
C           4.6231796    -2.1087457    -0.1714901
C           5.8140116    -1.5303048     0.3007010
H           5.8859578    -1.1821581     1.3248389
C           6.9184016    -1.3963020    -0.5410151
H           7.8306702    -0.9531066    -0.1504563
23
218_C8H11NO2S_4-5-18-16 (-30,) energy =    -914.7899265
C           1.9483875    -0.2309878    -0.4024966
H           0.9516574    -0.0390818    -0.8057123
H           2.7002885    -0.1455738    -1.1888071
H           2.1650737     0.4475883     0.4244825
S           1.9386002    -1.9240884     0.2287456
N           3.5430098    -2.1813722     0.7478428
C           3.7851927    -2.1896517     2.1944097
H           4.1020814    -1.2086641     2.5741225
H           4.5646952    -2.9257816     2.4099894
H           2.8688601    -2.4834292     2.7011127
O           1.1096007    -1.9573263     1.4344555
O           1.6380018    -2.8120940    -0.8953631
C           6.8748638    -1.7950708    -1.8634952
H           7.7311718    -1.6959362    -2.5240193
C           5.6360236    -2.1995729    -2.3616459
H           5.5214149    -2.4266153    -3.4183049
C           4.5320298    -2.3431894    -1.5231083
H           3.5934043    -2.6994153    -1.9265828
C           4.6469496    -2.0631309    -0.1479280
C           5.8963809    -1.6497739     0.3497424
H           6.0202699    -1.4169676     1.4003979
C           6.9948788    -1.5284873    -0.5010352
H           7.9487707    -1.2128090    -0.0866855
23
218_C8H11NO2S_4-5-18-16 (-15,) energy =    -914.7891003
C           1.8104166    -0.3208732    -0.4302681
H           0.8077475    -0.2287239    -0.8537313
H           2.5653491    -0.1973511    -1.2085181
H           1.9549867     0.4008980     0.3752990
S           1.9327604    -1.9829610     0.2651455
N           3.5549326    -2.0791465     0.7815461
C           3.8069414    -2.1254726     2.2252528
H           4.2236314    -1.1796355     2.5945664
H           4.5085803    -2.9367354     2.4432724
H           2.8683070    -2.3219727     2.7379742
O           1.1129337    -2.0270484     1.4767813
O           1.6958563    -2.9391574    -0.8176624
C           6.8870561    -1.8059102    -1.8473970
H           7.7439967    -1.7292832    -2.5099203
C           5.6140921    -2.0634467    -2.3554961
H           5.4712803    -2.1984885    -3.4244375
C           4.5070048    -2.1727170    -1.5159509
H           3.5450298    -2.4272652    -1.9401554
C           4.6525834    -2.0135793    -0.1234601
C           5.9394878    -1.7522840     0.3844627
H           6.0952198    -1.6149781     1.4470009
C           7.0372160    -1.6578141    -0.4703347
H           8.0172314    -1.4593100    -0.0443709
23
218_C8H11NO2S_4-5-18-16 (0,) energy =    -914.7882552
C           1.6679030    -0.4158404    -0.4306881
H           0.6627257    -0.4140139    -0.8584385
H           2.4117295    -0.2212683    -1.2050677
H           1.7432713     0.3156297     0.3754930
S           1.9418784    -2.0592485     0.2651284
N           3.5662064    -1.9937383     0.7833348
C           3.8183012    -2.0153530     2.2278448
H           4.3317891    -1.1004121     2.5462813
H           4.4326373    -2.8833168     2.4910447
H           2.8664624    -2.0902496     2.7481996
O           1.1255942    -2.1720133     1.4746884
O           1.8000530    -3.0353435    -0.8156531
C           6.9205859    -1.8440825    -1.8323925
H           7.7835207    -1.7933234    -2.4895533
C           5.6319208    -1.9555312    -2.3533618
H           5.4811290    -2.0007263    -3.4287359
C           4.5164367    -2.0247939    -1.5212424
H           3.5422118    -2.1666528    -1.9682235
C           4.6670499    -1.9827287    -0.1204118
C           5.9710341    -1.8721411     0.3996741
H           6.1379867    -1.8307519     1.4680465
C           7.0759365    -1.8083618    -0.4489950
H           8.0671393    -1.7264128    -0.0107394
23
218_C8H11NO2S_4-5-18-16 (15,) energy =    -914.7876384
C           1.5062933    -0.4778758    -0.3894090
H           0.4930850    -0.5662880    -0.7885439
H           2.2040771    -0.1963148    -1.1795776
H           1.5332807     0.2447649     0.4277783
S           1.9583932    -2.0979228     0.2684490
N           3.5754301    -1.8732244     0.7678081
C           3.8323243    -1.8351800     2.2116772
H           4.4575414    -0.9690977     2.4534475
H           4.3361684    -2.7489155     2.5482586
H           2.8837625    -1.7536687     2.7371603
O           1.1719376    -2.3078935     1.4851270
O           1.9077819    -3.0629975    -0.8290938
C           6.9343949    -1.9139394    -1.8450284
H           7.7986054    -1.9099802    -2.5024486
C           5.6418839    -1.8583019    -2.3665796
H           5.4890205    -1.8159760    -3.4417257
C           4.5252759    -1.8604945    -1.5343443
H           3.5438969    -1.8633809    -1.9876503
C           4.6766219    -1.9263540    -0.1351901
C           5.9829750    -1.9894974     0.3845428
H           6.1504329    -2.0466390     1.4521446
C           7.0907896    -1.9826648    -0.4633273
H           8.0843468    -2.0340900    -0.0257986
23
218_C8H11NO2S_4-5-18-16 (30,) energy =    -914.7874369
C           1.3925516    -0.6069433    -0.3745336
H           0.3792316    -0.7941777    -0.7378832
H           2.0234932    -0.2315789    -1.1816782
H           1.3734488     0.0963222     0.4597719
S           2.0425682    -2.1846177     0.2180183
N           3.6232274    -1.7843716     0.7254531
C           3.8416048    -1.6779789     2.1731160
H           4.5532291    -0.8692857     2.3641335
H           4.2295931    -2.6102609     2.6011755
H           2.8973949    -1.4502724     2.6636391
O           1.2896612    -2.5314949     1.4248541
O           2.1122033    -3.1005513    -0.9187883
C           7.0433992    -1.9747907    -1.7923824
H           7.9233378    -2.0096772    -2.4277830
C           5.7788155    -1.7563031    -2.3408495
H           5.6653263    -1.6207660    -3.4130839
C           4.6452007    -1.7025433    -1.5347556
H           3.6815665    -1.5536278    -2.0030537
C           4.7500372    -1.8822980    -0.1433711
C           6.0242597    -2.1121119     0.4029787
H           6.1462866    -2.2683187     1.4676096
C           7.1536455    -2.1515893    -0.4156410
H           8.1249306    -2.3302466     0.0380262
23
218_C8H11NO2S_4-5-18-16 (45,) energy =    -914.7877758
C           1.2744787    -0.6832935    -0.3145960
H           0.2574528    -0.9562410    -0.6063068
H           1.8078642    -0.2420896    -1.1580028
H           1.2530447     0.0049664     0.5322687
S           2.1074610    -2.2039442     0.1901447
N           3.6531087    -1.6466260     0.6633813
C           3.8550429    -1.4798008     2.1085788
H           4.6546296    -0.7494780     2.2572499
H           4.1181620    -2.4173560     2.6125075
H           2.9404676    -1.1003705     2.5639884
O           1.4349037    -2.6788444     1.4016989
O           2.2429448    -3.0566200    -0.9887822
C           7.0813738    -2.0573861    -1.8057953
H           7.9634649    -2.1484205    -2.4327936
C           5.8586790    -1.6676313    -2.3562927
H           5.7824518    -1.4512544    -3.4184422
C           4.7265525    -1.5369993    -1.5574134
H           3.7920030    -1.2300873    -2.0106937
C           4.7911862    -1.8160338    -0.1825273
C           6.0181085    -2.2195868     0.3655207
H           6.0948396    -2.4583599     1.4201095
C           7.1517618    -2.3285129    -0.4411650
H           8.0914636    -2.6389703     0.0077946
23
218_C8H11NO2S_4-5-18-16 (60,) energy =    -914.7882761
C           1.1224494    -0.7578790    -0.1440119
H           0.1174074    -1.1249693    -0.3650598
H           1.5250295    -0.2042569    -0.9934289
H           1.1054822    -0.1358083     0.7527887
S           2.1578394    -2.2059587     0.1535639
N           3.6576313    -1.4861991     0.5730641
C           3.8372698    -1.2600007     2.0138765
H           4.6823338    -0.5793901     2.1416394
H           4.0164214    -2.1821040     2.5782734
H           2.9441886    -0.7837604     2.4244859
O           1.6277740    -2.8810502     1.3424837
O           2.3173722    -2.9150496    -1.1143250
C           7.1167801    -2.1646435    -1.7852206
H           8.0067800    -2.3224107    -2.3876116
C           5.9633284    -1.6244033    -2.3587534
H           5.9515076    -1.3571279    -3.4118805
C           4.8246735    -1.4064091    -1.5883295
H           3.9401148    -0.9723774    -2.0401209
C           4.8154166    -1.7497910    -0.2288352
C           5.9687329    -2.3036858     0.3425150
H           5.9764377    -2.5895221     1.3888860
C           7.1138608    -2.4973696    -0.4317022
H           8.0013907    -2.9224705     0.0292425
23
218_C8H11NO2S_4-5-18-16 (75,) energy =    -914.7885479
C           1.0047044    -0.8888068    -0.0110308
H           0.0358745    -1.3605964    -0.1906013
H           1.2831186    -0.2481274    -0.8484588
H           0.9758479    -0.3229532     0.9217385
S           2.2120317    -2.2235992     0.1214877
N           3.6506615    -1.3443756     0.4765545
C           3.8243330    -1.0645893     1.9107145
H           4.6729391    -0.3846480     2.0148590
H           3.9923279    -1.9635045     2.5141466
H           2.9328653    -0.5617604     2.2952645
O           1.8413886    -3.0383265     1.2849946
O           2.3674094    -2.8250372    -1.2019681
C           7.1388522    -2.2432997    -1.7609995
H           8.0354199    -2.4553431    -2.3366406
C           6.0746647    -1.5542829    -2.3479793
H           6.1402627    -1.2260090    -3.3816704
C           4.9293264    -1.2678745    -1.6097522
H           4.1072581    -0.7206197    -2.0579378
C           4.8271133    -1.6886382    -0.2780247
C           5.8886249    -2.3896534     0.3062773
H           5.8159487    -2.7325952     1.3332772
C           7.0428269    -2.6556787    -0.4322986
H           7.8623307    -3.1962710     0.0334987
23
218_C8H11NO2S_4-5-18-16 (90,) energy =    -914.7896035
C           1.4814531    -1.2109688    -0.7128061
H           0.4712127    -1.5825725    -0.8984422
H           2.1094378    -1.3696747    -1.5906523
H           1.4451844    -0.1553870    -0.4347589
S           2.1405542    -2.1744079     0.6718448
N           3.7071239    -1.5912406     0.9750649
C           3.8149052    -0.3235170     1.7111745
H           3.6624645     0.5651724     1.0805731
H           4.8173867    -0.2732505     2.1443746
H           3.0798973    -0.3234221     2.5160808
O           1.3412498    -1.8379224     1.8520220
O           2.2837232    -3.5526103     0.2067498
C           6.6918318    -2.4837889    -1.8977640
H           7.4606045    -2.7204257    -2.6281202
C           5.9590408    -1.3010761    -2.0135760
H           6.1532507    -0.6158780    -2.8342735
C           4.9677299    -0.9981332    -1.0795069
H           4.4023176    -0.0745012    -1.1700442
C           4.7194981    -1.8708830    -0.0116651
C           5.4501556    -3.0581048     0.0985020
H           5.2298259    -3.7314249     0.9195687
C           6.4330757    -3.3616277    -0.8430322
H           6.9970557    -4.2857085    -0.7522216
23
218_C8H11NO2S_4-5-18-16 (105,) energy =    -914.7908738
C           1.5019617    -1.3604699    -0.6921025
H           0.5109285    -1.7879234    -0.8595047
H           2.1521539    -1.5653969    -1.5443471
H           1.4206992    -0.2876252    -0.5051782
S           2.1834104    -2.1728435     0.7749018
N           3.7391079    -1.5141466     0.9869657
C           3.8016143    -0.1978165     1.6380781
H           3.5019298     0.6352639     0.9849021
H           4.8336362    -0.0358590     1.9586256
H           3.1525851    -0.2114012     2.5131048
O           1.3943494    -1.7415781     1.9303587
O           2.3463416    -3.5877249     0.4457537
C           6.6848900    -2.4708101    -1.9067496
H           7.4465947    -2.7208684    -2.6399657
C           6.1111671    -1.1987584    -1.8984511
H           6.4211967    -0.4545968    -2.6271317
C           5.1287957    -0.8775140    -0.9607221
H           4.6845348     0.1136627    -0.9625017
C           4.7310942    -1.8247182    -0.0066020
C           5.3105226    -3.0998181    -0.0140617
H           4.9890027    -3.8253033     0.7238313
C           6.2775445    -3.4192158    -0.9657470
H           6.7208944    -4.4110812    -0.9649795
23
218_C8H11NO2S_4-5-18-16 (120,) energy =    -914.7912873
C           1.4868431    -1.5433190    -0.6769190
H           0.5038216    -2.0066490    -0.7856634
H           2.1319311    -1.8190483    -1.5130225
H           1.3856563    -0.4589224    -0.5976758
S           2.2071507    -2.1856688     0.8537929
N           3.7484319    -1.4629364     0.9553758
C           3.7862396    -0.1231829     1.5569298
H           3.4215268     0.6713988     0.8891349
H           4.8241090     0.0911730     1.8229381
H           3.1779589    -0.1296983     2.4600192
O           1.4336644    -1.6537245     1.9769003
O           2.3859789    -3.6255523     0.6744765
C           6.7042977    -2.4485797    -1.9237880
H           7.4713134    -2.7017380    -2.6501936
C           6.2704293    -1.1300729    -1.7900646
H           6.6947205    -0.3480093    -2.4140400
C           5.2822563    -0.8034141    -0.8602733
H           4.9492486     0.2258830    -0.7738893
C           4.7288735    -1.7967196    -0.0380657
C           5.1799854    -3.1201338    -0.1611455
H           4.7632481    -3.8828773     0.4840231
C           6.1509705    -3.4384081    -1.1083352
H           6.4895802    -4.4672570    -1.1947387
23
218_C8H11NO2S_4-5-18-16 (135,) energy =    -914.7907572
C           1.4962237    -1.8131163    -0.6524266
H           0.5354724    -2.3304188    -0.6992989
H           2.1649848    -2.1804336    -1.4327788
H           1.3518965    -0.7339111    -0.7330119
S           2.2181048    -2.1876316     0.9630274
N           3.7353122    -1.4050826     0.9468095
C           3.7803802    -0.0662534     1.5474894
H           3.4479930     0.7282840     0.8639932
H           4.8128599     0.1315462     1.8462707
H           3.1448477    -0.0588124     2.4305264
O           1.4225975    -1.5103341     1.9879995
O           2.4276340    -3.6339879     1.0203946
C           6.7010015    -2.4082450    -1.9247134
H           7.4698671    -2.6610929    -2.6490306
C           6.4056436    -1.0751227    -1.6447126
H           6.9405161    -0.2771598    -2.1529826
C           5.4164541    -0.7465467    -0.7173517
H           5.1970975     0.2979549    -0.5269050
C           4.7107267    -1.7557601    -0.0404580
C           5.0282239    -3.0997127    -0.3063494
H           4.5166525    -3.8856523     0.2329847
C           6.0036450    -3.4126211    -1.2511992
H           6.2322975    -4.4574899    -1.4435781
23
218_C8H11NO2S_4-5-18-16 (150,) energy =    -914.7899791
C           1.5041898    -2.0472566    -0.6131582
H           0.5797952    -2.6284008    -0.5873677
H           2.1918633    -2.4581011    -1.3542504
H           1.2908127    -0.9958932    -0.8143287
S           2.2496456    -2.1812344     1.0276823
N           3.7238377    -1.3332112     0.8862909
C           3.7919237    -0.0063438     1.5074085
H           3.5553690     0.8027397     0.8027301
H           4.8037749     0.1413746     1.8951452
H           3.0859010     0.0292368     2.3338125
O           1.4271382    -1.4170372     1.9667068
O           2.5224665    -3.5981844     1.2730797
C           6.7070400    -2.3864525    -1.9532295
H           7.4757800    -2.6492571    -2.6739172
C           6.5428366    -1.0657806    -1.5406259
H           7.1828130    -0.2834870    -1.9402024
C           5.5544910    -0.7235985    -0.6176764
H           5.4440793     0.3151118    -0.3308876
C           4.7075673    -1.7081795    -0.0771779
C           4.8922975    -3.0455958    -0.4776413
H           4.2882380    -3.8295793    -0.0404559
C           5.8731914    -3.3667049    -1.4140470
H           5.9951364    -4.4063187    -1.7065155
23
218_C8H11NO2S_4-5-18-16 (165,) energy =    -914.7890919
C           1.4512582    -2.1744247    -0.5605350
H           0.5720153    -2.8149730    -0.4618927
H           2.1294864    -2.5724055    -1.3171328
H           1.1563360    -1.1508613    -0.7976360
S           2.2775553    -2.1730041     1.0454637
N           3.6873473    -1.2531614     0.7712269
C           3.7684786     0.0689734     1.3993233
H           3.6553599     0.8750989     0.6631413
H           4.7362082     0.1724132     1.9001405
H           2.9767033     0.1525675     2.1400205
O           1.4549441    -1.3971898     1.9747101
O           2.6402578    -3.5552502     1.3624598
C           6.7612901    -2.3887408    -1.9411346
H           7.5497399    -2.6679261    -2.6336297
C           6.6802494    -1.0911310    -1.4412414
H           7.4075163    -0.3415119    -1.7419565
C           5.6686811    -0.7271400    -0.5527478
H           5.6338076     0.2946705    -0.1970605
C           4.7039569    -1.6646884    -0.1378383
C           4.8046288    -2.9825427    -0.6269331
H           4.1249815    -3.7489810    -0.2795700
C           5.8158875    -3.3248454    -1.5225200
H           5.8685686    -4.3498612    -1.8800424
23
218_C8H11NO2S_4-5-18-16 (180,) energy =    -914.7881851
C           1.3075049    -2.2230529    -0.3543677
H           0.4710231    -2.9022849    -0.1745243
H           1.9255388    -2.5892022    -1.1758896
H           0.9454991    -1.2140668    -0.5581965
S           2.2889757    -2.1800910     1.1605479
N           3.6212429    -1.2047063     0.7296043
C           3.7205870     0.1193555     1.3520510
H           3.7151116     0.9067233     0.5891055
H           4.6419554     0.1940880     1.9400484
H           2.8709691     0.2587156     2.0161958
O           1.5308793    -1.4273479     2.1609297
O           2.7371823    -3.5433862     1.4454556
C           6.7395454    -2.4106359    -1.9052533
H           7.5360302    -2.7053144    -2.5819248
C           6.7381418    -1.1519741    -1.3095943
H           7.5388151    -0.4470788    -1.5177524
C           5.7168891    -0.7699530    -0.4398318
H           5.7539407     0.2193325    -0.0030359
C           4.6567513    -1.6478353    -0.1423936
C           4.6734835    -2.9274585    -0.7330213
H           3.9214303    -3.6625608    -0.4824384
C           5.7003746    -3.2897424    -1.6022236
H           5.6849573    -4.2857392    -2.0368913
