18
184_C6H12_5-0-11-12 (-165,) energy =    -235.8510516
C           1.4993595    -0.6717346    -0.2281796
C           1.0115905     0.2789061     0.8383268
H           0.4153974    -0.2491267     1.5958274
H           0.3593926     1.0544017     0.4171759
H           1.8298140     0.7822108     1.3575368
C           2.7945627    -0.9333586    -0.4635020
H           3.0161840    -1.6594121    -1.2493194
C           4.0153972    -0.3576947     0.1988490
H           4.6182185    -1.1513637     0.6621806
H           3.7831632     0.3751135     0.9760271
H           4.6656979     0.1344760    -0.5377133
C           0.4386684    -1.4662260    -0.9963554
C          -0.9922089    -0.9117875    -0.9732876
H          -1.0511683     0.0902902    -1.4147836
H          -1.3922487    -0.8518772     0.0442021
H          -1.6574582    -1.5643008    -1.5497861
H           0.4032946    -2.4837420    -0.5773639
H           0.7649607    -1.5883019    -2.0367227
18
184_C6H12_5-0-11-12 (-150,) energy =    -235.8532016
C           1.4805628    -0.7110171    -0.1876084
C           1.0018354     0.1802381     0.9331700
H           0.4041243    -0.3907348     1.6580127
H           0.3517707     0.9814420     0.5588622
H           1.8224988     0.6496979     1.4796728
C           2.7729236    -0.9068007    -0.4932875
H           2.9879197    -1.5963484    -1.3124061
C           3.9967333    -0.2937239     0.1287417
H           4.6586581    -1.0714227     0.5347706
H           3.7692378     0.4027872     0.9399885
H           4.5849714     0.2524586    -0.6217181
C           0.4118637    -1.5269060    -0.9063893
C          -0.9527919    -0.8448869    -1.0853860
H          -0.8675923     0.0883852    -1.6553279
H          -1.4194991    -0.6075660    -0.1237456
H          -1.6384085    -1.5043188    -1.6292501
H           0.2432359    -2.4515019    -0.3303330
H           0.7962746    -1.8484683    -1.8817946
18
184_C6H12_5-0-11-12 (-135,) energy =    -235.8549614
C           1.4581388    -0.7568427    -0.1267374
C           0.9962326     0.0969487     1.0304581
H           0.3864066    -0.4936883     1.7286396
H           0.3622461     0.9259125     0.6896139
H           1.8241970     0.5285035     1.5971811
C           2.7390413    -0.8851179    -0.5073291
H           2.9412451    -1.5477956    -1.3509843
C           3.9636412    -0.2257017     0.0635123
H           4.6905901    -0.9778338     0.4001591
H           3.7480280     0.4299894     0.9112624
H           4.4736677     0.3780222    -0.7000466
C           0.3781232    -1.5733318    -0.8164230
C          -0.8923395    -0.7940251    -1.1947132
H          -0.6600821     0.0486504    -1.8570247
H          -1.4038646    -0.3952113    -0.3122769
H          -1.6006219    -1.4460894    -1.7182054
H           0.0802401    -2.3947806    -0.1442864
H           0.7975541    -2.0487031    -1.7111779
18
184_C6H12_5-0-11-12 (-120,) energy =    -235.8557782
C           1.4376060    -0.7896411    -0.0436890
C           1.0111206     0.0273174     1.1534680
H           0.4510515    -0.5951851     1.8651388
H           0.3403905     0.8465451     0.8625219
H           1.8534873     0.4693151     1.6903752
C           2.6958604    -0.8568720    -0.5065317
H           2.8707970    -1.4931264    -1.3760986
C           3.9261608    -0.1601181     0.0043179
H           4.7042681    -0.8876206     0.2738500
H           3.7374743     0.4649959     0.8811292
H           4.3599882     0.4838118    -0.7733770
C           0.3362174    -1.5908068    -0.7129582
C          -0.8149373    -0.7414710    -1.2807738
H          -0.4429258    -0.0198758    -2.0174274
H          -1.3346850    -0.1813060    -0.4957767
H          -1.5568075    -1.3782179    -1.7761654
H          -0.0853217    -2.3003288     0.0165670
H           0.7673399    -2.1964571    -1.5192962
18
184_C6H12_5-0-11-12 (-105,) energy =    -235.8557748
C           1.4278758    -0.8134726     0.0218901
C           1.0459392    -0.0513764     1.2686453
H           0.6656014    -0.7379360     2.0380162
H           0.2384883     0.6648241     1.0663367
H           1.8779588     0.5071857     1.7034106
C           2.6562500    -0.8239756    -0.5189924
H           2.7957822    -1.4272169    -1.4182827
C           3.8969008    -0.1133101    -0.0547777
H           4.7028712    -0.8305286     0.1539476
H           3.7418377     0.4822604     0.8488016
H           4.2760959     0.5604865    -0.8355893
C           0.3000670    -1.5906551    -0.6331078
C          -0.7091419    -0.7040068    -1.3861733
H          -0.2113843    -0.1443245    -2.1859190
H          -1.1908575     0.0213019    -0.7207019
H          -1.5007485    -1.3129006    -1.8382104
H          -0.2391013    -2.1689313     0.1320532
H           0.7207508    -2.3207734    -1.3353606
18
184_C6H12_5-0-11-12 (-90,) energy =    -235.8551163
C           1.4032573    -0.8418136     0.0757634
C           1.0707433    -0.1384375     1.3697228
H           0.8064995    -0.8676660     2.1485246
H           0.1950468     0.5136529     1.2474107
H           1.8891275     0.4756690     1.7527530
C           2.5957651    -0.7947499    -0.5373814
H           2.6942260    -1.3538879    -1.4704649
C           3.8454667    -0.0754026    -0.1125543
H           4.6763430    -0.7810811     0.0261440
H           3.7259059     0.4818140     0.8204645
H           4.1684744     0.6357159    -0.8855414
C           0.2444469    -1.5882418    -0.5657251
C          -0.6064067    -0.6989516    -1.4909058
H          -0.0014096    -0.3159808    -2.3197286
H          -1.0183196     0.1639100    -0.9540368
H          -1.4482775    -1.2611018    -1.9122611
H          -0.3989661    -2.0172728     0.2148224
H           0.6292724    -2.4338233    -1.1498225
18
184_C6H12_5-0-11-12 (-75,) energy =    -235.8539229
C           1.3746824    -0.8328429     0.1227934
C           1.1090467    -0.2101742     1.4717760
H           0.8830574    -0.9847789     2.2181502
H           0.2268800     0.4440772     1.4298238
H           1.9447954     0.3832038     1.8501733
C           2.5288543    -0.7334039    -0.5534769
H           2.5773536    -1.2331781    -1.5237307
C           3.7969778    -0.0306333    -0.1560712
H           4.6388552    -0.7356012    -0.1121991
H           3.7287133     0.4632545     0.8168982
H           4.0702840     0.7325644    -0.8979788
C           0.1845887    -1.5532781    -0.5006325
C          -0.5128638    -0.7309723    -1.5983806
H           0.1742346    -0.5274943    -2.4264325
H          -0.8605394     0.2349272    -1.2125023
H          -1.3826204    -1.2650523    -1.9995707
H          -0.5443969    -1.8078140     0.2794094
H           0.5147043    -2.5069061    -0.9335125
18
184_C6H12_5-0-11-12 (-60,) energy =    -235.8529298
C           1.3431318    -0.7875714     0.1462747
C           1.1628597    -0.2908774     1.5598983
H           0.9374669    -1.1262704     2.2379030
H           0.3068349     0.3957876     1.6226173
H           2.0382246     0.2302588     1.9545222
C           2.4642106    -0.6433919    -0.5758563
H           2.4628256    -1.0561133    -1.5868319
C           3.7593432     0.0119134    -0.1835547
H           4.5922138    -0.7031647    -0.2363750
H           3.7440376     0.4268463     0.8277107
H           4.0088339     0.8292443    -0.8744184
C           0.1203760    -1.4805966    -0.4536972
C          -0.4369117    -0.7971956    -1.7128273
H           0.3038235    -0.7816149    -2.5190706
H          -0.7198267     0.2413159    -1.5049822
H          -1.3250757    -1.3228712    -2.0833825
H          -0.6728521    -1.5313681     0.3026174
H           0.3685565    -2.5236614    -0.6957703
18
184_C6H12_5-0-11-12 (-45,) energy =    -235.8529091
C           1.3125041    -0.7272547     0.1621949
C           1.2105360    -0.3800441     1.6279053
H           0.9515128    -1.2704255     2.2183080
H           0.4042213     0.3473184     1.7984164
H           2.1306400     0.0369283     2.0435641
C           2.4072439    -0.5350959    -0.5886092
H           2.3610126    -0.8438656    -1.6336518
C           3.7277655     0.0636108    -0.1889817
H           4.5448595    -0.6553216    -0.3417437
H           3.7603670     0.3837580     0.8556543
H           3.9645033     0.9376275    -0.8115466
C           0.0602271    -1.3863417    -0.4133394
C          -0.3779660    -0.8895133    -1.7980011
H           0.3726243    -1.1007326    -2.5669229
H          -0.5484524     0.1928450    -1.7900526
H          -1.3089280    -1.3792712    -2.1064936
H          -0.7696152    -1.2263483     0.2876955
H           0.2048194    -2.4768398    -0.4461196
18
184_C6H12_5-0-11-12 (-30,) energy =    -235.8539080
C           1.3098827    -0.6787120     0.1819583
C           1.2705405    -0.4609762     1.6760652
H           0.9924417    -1.3896713     2.1942671
H           0.5033971     0.2806072     1.9401187
H           2.2211620    -0.1211865     2.0929635
C           2.3787176    -0.4356414    -0.5913042
H           2.2905861    -0.6465242    -1.6567462
C           3.7194970     0.1160135    -0.1907974
H           4.5229938    -0.5885917    -0.4470091
H           3.7986236     0.3333932     0.8774853
H           3.9377822     1.0451613    -0.7353767
C           0.0297750    -1.2884589    -0.3762424
C          -0.3000537    -0.9822643    -1.8413838
H           0.4374741    -1.4087256    -2.5300680
H          -0.3358636     0.0983642    -2.0181382
H          -1.2752847    -1.4042578    -2.1092148
H          -0.8096130    -0.9397508     0.2427394
H           0.0589197    -2.3788628    -0.2235472
18
184_C6H12_5-0-11-12 (-15,) energy =    -235.8550308
C           1.2871661    -0.6560226     0.1884450
C           1.2962354    -0.5453677     1.6952016
H           1.0177495    -1.5038475     2.1553963
H           0.5522676     0.1883523     2.0361985
H           2.2653872    -0.2512377     2.1038704
C           2.3313206    -0.3579999    -0.5992407
H           2.2064684    -0.4844346    -1.6737917
C           3.6889115     0.1531140    -0.2012995
H           4.4780010    -0.5341612    -0.5369637
H           3.8043336     0.2876985     0.8772748
H           3.8968122     1.1200943    -0.6800355
C          -0.0230187    -1.1945736    -0.3642318
C          -0.2554602    -1.0638012    -1.8717675
H           0.4638928    -1.6537530    -2.4506947
H          -0.1720683    -0.0207074    -2.1967640
H          -1.2576410    -1.4203621    -2.1340479
H          -0.8468227    -0.6869246     0.1609339
H          -0.1153364    -2.2522873    -0.0698589
18
184_C6H12_5-0-11-12 (0,) energy =    -235.8554597
C           1.2910914    -0.6288334     0.1889632
C           1.3414945    -0.6119709     1.6991103
H           1.1332858    -1.6113198     2.1064749
H           0.5685091     0.0547508     2.1064942
H           2.3043544    -0.2854393     2.0977350
C           2.3141404    -0.2826705    -0.6068445
H           2.1586222    -0.3352791    -1.6833477
C           3.6901192     0.1818195    -0.2148534
H           4.4589095    -0.4838246    -0.6312335
H           3.8430609     0.2270202     0.8664737
H           3.8942757     1.1822843    -0.6210359
C          -0.0520980    -1.0825642    -0.3575802
C          -0.2141001    -1.1365976    -1.8781540
H           0.5004343    -1.8300212    -2.3357968
H          -0.0658894    -0.1516643    -2.3350361
H          -1.2220189    -1.4766219    -2.1401027
H          -0.8313048    -0.4263053     0.0618252
H          -0.2733473    -2.0772629     0.0611619
18
184_C6H12_5-0-11-12 (15,) energy =    -235.8550311
C           1.3154735    -0.5963733     0.1925001
C           1.3984831    -0.6810037     1.6986544
H           1.2540378    -1.7159831     2.0393059
H           0.5982466    -0.0885030     2.1640818
H           2.3496504    -0.3273710     2.1023651
C           2.3215330    -0.1981241    -0.6004798
H           2.1393011    -0.1726150    -1.6739406
C           3.7135496     0.2175951    -0.2103522
H           4.4617237    -0.4273607    -0.6917753
H           3.8924786     0.1821852     0.8673677
H           3.9242260     1.2416116    -0.5489543
C          -0.0560828    -0.9625011    -0.3527105
C          -0.1704729    -1.2047796    -1.8600486
H           0.5244433    -1.9852161    -2.1897319
H           0.0432616    -0.2993825    -2.4389649
H          -1.1858451    -1.5259081    -2.1173339
H          -0.7694669    -0.1784051    -0.0524803
H          -0.3994992    -1.8670549     0.1726099
18
184_C6H12_5-0-11-12 (30,) energy =    -235.8539071
C           1.3038607    -0.5723731     0.1806013
C           1.4116130    -0.7697056     1.6741519
H           1.2468278    -1.8236402     1.9390468
H           0.6333387    -0.1954964     2.1966323
H           2.3774762    -0.4687839     2.0858506
C           2.2972752    -0.1156643    -0.5964959
H           2.0931771    -0.0012106    -1.6607526
C           3.6994821     0.2600786    -0.2025003
H           4.4345692    -0.3442658    -0.7520144
H           3.8999581     0.1336766     0.8645360
H           3.9082384     1.3083706    -0.4578787
C          -0.0859032    -0.8648094    -0.3718233
C          -0.1682744    -1.3069642    -1.8370512
H           0.4582500    -2.1874583    -2.0171881
H           0.1563303    -0.5198114    -2.5263692
H          -1.2005939    -1.5631068    -2.1008600
H          -0.7241246     0.0192955    -0.2163416
H          -0.5385573    -1.6516275     0.2489058
18
184_C6H12_5-0-11-12 (45,) energy =    -235.8529088
C           1.2984190    -0.5204084     0.1786253
C           1.4358842    -0.8609525     1.6429857
H           1.2372592    -1.9286562     1.8128316
H           0.6928832    -0.3113608     2.2382229
H           2.4225359    -0.6349371     2.0536245
C           2.2819894    -0.0101309    -0.5773159
H           2.0523093     0.2096043    -1.6206490
C           3.6980044     0.3114483    -0.1856461
H           4.4117053    -0.2450642    -0.8089116
H           3.9220636     0.0806886     0.8590354
H           3.9144344     1.3772078    -0.3442417
C          -0.1005957    -0.7520829    -0.3893564
C          -0.1565512    -1.4107249    -1.7747658
H           0.3621391    -2.3758848    -1.7700694
H           0.3097449    -0.7881731    -2.5456458
H          -1.1957263    -1.5832698    -2.0782132
H          -0.6457168     0.2034954    -0.4168199
H          -0.6604199    -1.3833464     0.3134718
18
184_C6H12_5-0-11-12 (60,) energy =    -235.8529296
C           1.2815210    -0.4560719     0.1698730
C           1.4447226    -0.9639460     1.5816142
H           1.2007957    -2.0343438     1.6384660
H           0.7468236    -0.4528962     2.2597377
H           2.4531860    -0.8301246     1.9799531
C           2.2589786     0.1052962    -0.5570574
H           2.0032560     0.4346173    -1.5663121
C           3.6895482     0.3627544    -0.1724709
H           4.3774245    -0.1411748    -0.8656521
H           3.9322873     0.0241727     0.8382237
H           3.9237001     1.4350139    -0.2288929
C          -0.1144561    -0.6413583    -0.4236122
C          -0.1527374    -1.5227800    -1.6824436
H           0.2475481    -2.5221927    -1.4759223
H           0.4447399    -1.0893669    -2.4912584
H          -1.1798292    -1.6380080    -2.0489182
H          -0.5466217     0.3402488    -0.6641149
H          -0.7743425    -1.0789079     0.3359409
18
184_C6H12_5-0-11-12 (75,) energy =    -235.8539238
C           1.2795836    -0.4009641     0.1401628
C           1.4479955    -1.0578564     1.4885255
H           1.1491240    -2.1147013     1.4450855
H           0.7951497    -0.5833453     2.2346322
H           2.4717886    -1.0176253     1.8679737
C           2.2569755     0.2176148    -0.5391607
H           1.9921678     0.6455869    -1.5088540
C           3.6929827     0.4238919    -0.1453993
H           4.3699934    -0.0186846    -0.8892849
H           3.9394676    -0.0115192     0.8266786
H           3.9378788     1.4942940    -0.1015933
C          -0.1055278    -0.5462407    -0.4797760
C          -0.1671670    -1.6227466    -1.5775281
H           0.1362731    -2.6031764    -1.1911020
H           0.5042054    -1.3721859    -2.4056267
H          -1.1831123    -1.7197404    -1.9789551
H          -0.4198482     0.4128432    -0.9122570
H          -0.8382101    -0.7834335     0.3023362
18
184_C6H12_5-0-11-12 (90,) energy =    -235.8551162
C           1.2966541    -0.3766651     0.0928658
C           1.4598893    -1.1381059     1.3863855
H           1.1572072    -2.1871639     1.2643175
H           0.8095632    -0.7177211     2.1664312
H           2.4837098    -1.1317905     1.7676179
C           2.2735678     0.3067495    -0.5226041
H           2.0114863     0.8117704    -1.4549365
C           3.7049588     0.4893141    -0.1012928
H           4.3903284     0.1178355    -0.8757725
H           3.9488140    -0.0264745     0.8313398
H           3.9405155     1.5537894     0.0364296
C          -0.0791825    -0.4824433    -0.5453979
C          -0.2217116    -1.7050873    -1.4703714
H          -0.0268622    -2.6414907    -0.9340943
H           0.4896030    -1.6443600    -2.3010341
H          -1.2332420    -1.7661350    -1.8891566
H          -0.2852028     0.4238356    -1.1288976
H          -0.8491697    -0.5296486     0.2370359
18
184_C6H12_5-0-11-12 (105,) energy =    -235.8557734
C           1.4724999    -0.4224347    -0.4397833
C           1.1375857     0.8756235     0.2561315
H           0.2478831     0.7692809     0.8908474
H           0.9016926     1.6571635    -0.4797492
H           1.9480342     1.2470342     0.8873427
C           2.6357084    -1.0794771    -0.3099681
H           2.7478744    -2.0041950    -0.8795262
C           3.8356728    -0.7170521     0.5198301
H           4.0564852    -1.5056759     1.2526418
H           3.7141178     0.2198439     1.0699234
H           4.7307789    -0.6197340    -0.1099464
C           0.3720518    -0.9878552    -1.3194529
C          -0.7932744    -1.6139050    -0.5305957
H          -1.2770411    -0.8855796     0.1300004
H          -0.4379180    -2.4437855     0.0904052
H          -1.5600678    -2.0018762    -1.2112190
H           0.7943716    -1.7490062    -1.9870009
H          -0.0257635    -0.1920035    -1.9666853
18
184_C6H12_5-0-11-12 (120,) energy =    -235.8557781
C           1.4726311    -0.4881661    -0.4133052
C           1.0842400     0.7676093     0.3313867
H           0.3051512     0.5666771     1.0785854
H           0.6668369     1.5126288    -0.3602759
H           1.9246949     1.2320725     0.8520443
C           2.6788970    -1.0723609    -0.3382336
H           2.8320114    -1.9728738    -0.9359030
C           3.8753841    -0.6621026     0.4742519
H           4.1612868    -1.4583078     1.1756648
H           3.7112411     0.2472904     1.0583944
H           4.7471506    -0.4910025    -0.1723494
C           0.3992255    -1.0713002    -1.3137138
C          -0.8842730    -1.5001002    -0.5804500
H          -1.3780099    -0.6528498    -0.0920951
H          -0.6639712    -2.2490171     0.1892017
H          -1.6022946    -1.9385312    -1.2829166
H           0.8087580    -1.9328984    -1.8548062
H           0.1277598    -0.3256733    -2.0776825
18
184_C6H12_5-0-11-12 (135,) energy =    -235.8549612
C           1.5001748    -0.5501272    -0.3581624
C           1.0829657     0.6755212     0.4197954
H           0.3342616     0.4300133     1.1842860
H           0.6166116     1.4163181    -0.2449955
H           1.9195850     1.1636761     0.9244727
C           2.7380422    -1.0692796    -0.3440720
H           2.9134401    -1.9496661    -0.9653095
C           3.9438895    -0.6127782     0.4291385
H           4.3048591    -1.4090977     1.0948527
H           3.7554677     0.2705586     1.0450144
H           4.7753608    -0.3753052    -0.2489332
C           0.4402036    -1.1450658    -1.2699074
C          -0.9369255    -1.3612727    -0.6208178
H          -1.3868995    -0.4173776    -0.2952775
H          -0.8657221    -2.0181949     0.2544484
H          -1.6279733    -1.8260820    -1.3330741
H           0.8054432    -2.0937234    -1.6811908
H           0.3031938    -0.4704715    -2.1309544
18
184_C6H12_5-0-11-12 (150,) energy =    -235.8532016
C           1.5026565    -0.6053646    -0.3005408
C           1.0585891     0.5855501     0.5144190
H           0.2930443     0.3057265     1.2494656
H           0.6044127     1.3520870    -0.1296264
H           1.8807879     1.0562022     1.0575804
C           2.7674864    -1.0519770    -0.3526094
H           2.9627462    -1.9092546    -1.0003820
C           3.9816272    -0.5447733     0.3747519
H           4.4258204    -1.3365386     0.9938750
H           3.7726535     0.3063653     1.0281271
H           4.7601662    -0.2342874    -0.3360987
C           0.4524466    -1.2306245    -1.2118467
C          -0.9867206    -1.2436905    -0.6751398
H          -1.3682557    -0.2314323    -0.5058914
H          -1.0608235    -1.7918913     0.2720111
H          -1.6554687    -1.7308599    -1.3935714
H           0.7599010    -2.2503446    -1.4730499
H           0.4438904    -0.6674394    -2.1594314
18
184_C6H12_5-0-11-12 (165,) energy =    -235.8510518
C           1.5112041    -0.6515607    -0.2650083
C           1.0470818     0.4882001     0.6094273
H           0.2761507     0.1617245     1.3188237
H           0.5948975     1.2893287     0.0079261
H           1.8606450     0.9315070     1.1873224
C           2.7935101    -1.0299241    -0.3829196
H           3.0031121    -1.8558184    -1.0668683
C           4.0127035    -0.4825443     0.3058747
H           4.5251127    -1.2677061     0.8791113
H           3.7916245     0.3375982     0.9939471
H           4.7408672    -0.1107589    -0.4286646
C           0.4612651    -1.3263658    -1.1528186
C          -1.0082753    -1.1353800    -0.7537712
H          -1.2989307    -0.0797008    -0.7535217
H          -1.2187912    -1.5398747     0.2435224
H          -1.6609643    -1.6554967    -1.4637903
H           0.6838077    -2.3985610    -1.2206714
H           0.5765153    -0.9364609    -2.1760091
18
184_C6H12_5-0-11-12 (180,) energy =    -235.8498726
C           1.4989007    -0.6568898    -0.2419526
C           1.0149319     0.3895447     0.7326831
H           0.3317975    -0.0416453     1.4763609
H           0.4543826     1.1835417     0.2219369
H           1.8342952     0.8641258     1.2764683
C           2.7909046    -0.9745175    -0.4168992
H           3.0122511    -1.7508062    -1.1536620
C           4.0090524    -0.4127209     0.2621207
H           4.5648374    -1.2033789     0.7854871
H           3.7783300     0.3666169     0.9931112
H           4.7029638     0.0179856    -0.4732751
C           0.4462482    -1.3992178    -1.0787555
C          -1.0224275    -1.0146981    -0.8569377
H          -1.2129519     0.0383906    -1.0917147
H          -1.3429895    -1.1893453     0.1760599
H          -1.6681478    -1.6166499    -1.5060771
H           0.5505339    -2.4777585    -0.8968782
H           0.6814730    -1.2592327    -2.1428227
