20
061_C7H9N3O_2-0-16-17 (-165,) energy =    -511.6643185
N           3.7056275     1.2670302    -1.3036829
H           3.4462902     2.1641821    -1.6953337
C           3.4789283     0.2085693    -2.1892084
N           3.5123028    -1.0601952    -1.6527614
H           3.2952953    -1.1403303    -0.6677448
C           3.1110385    -2.1775611    -2.4982268
H           2.0320629    -2.1885146    -2.7016670
H           3.3947194    -3.1111892    -2.0051453
H           3.6335622    -2.1019041    -3.4526705
O           3.2609564     0.4321694    -3.3716015
C           5.1022601     1.7544503     2.5629868
H           5.4318740     1.9577739     3.5764560
C           5.3771376     0.5416639     1.9304567
H           5.9487407    -0.2301003     2.4393172
C           4.9370359     0.3235355     0.6288414
H           5.1922823    -0.5862349     0.0997236
C           4.2029306     1.3460055    -0.0018847
N           3.9564697     2.5275634     0.5884420
C           4.4030771     2.7145538     1.8330568
H           4.1859091     3.6892477     2.2673238
20
061_C7H9N3O_2-0-16-17 (-150,) energy =    -511.6642122
N           3.8717760     1.2861059    -1.3924192
H           3.5724476     2.1755704    -1.7734727
C           3.5211241     0.2136148    -2.2222546
N           3.5501697    -1.0413169    -1.6569044
H           3.4306126    -1.0942190    -0.6537980
C           3.0391176    -2.1625516    -2.4345636
H           1.9463232    -2.1418057    -2.5405645
H           3.3358494    -3.0942107    -1.9453368
H           3.4758817    -2.1258569    -3.4333868
O           3.2251709     0.4169880    -3.3913297
C           5.0201938     1.7135839     2.5621543
H           5.2841677     1.8959927     3.5986203
C           5.4008155     0.5437504     1.9034538
H           5.9916375    -0.2120816     2.4141808
C           5.0441842     0.3549313     0.5721057
H           5.3817934    -0.5143695     0.0201927
C           4.2805994     1.3556070    -0.0584078
N           3.9297473     2.4951440     0.5591264
C           4.3033728     2.6599785     1.8312924
H           4.0064638     3.6023728     2.2888674
20
061_C7H9N3O_2-0-16-17 (-135,) energy =    -511.6635627
N           4.0399271     1.2965694    -1.4474219
H           3.7133051     2.1821334    -1.8171369
C           3.5623556     0.2267480    -2.2244331
N           3.5746676    -1.0165220    -1.6383235
H           3.5603653    -1.0540342    -0.6279342
C           2.9588083    -2.1291082    -2.3479024
H           1.8617270    -2.0784802    -2.3448716
H           3.2762618    -3.0652282    -1.8804853
H           3.2950590    -2.1125127    -3.3853965
O           3.1960865     0.4254920    -3.3739213
C           4.9433854     1.6507302     2.5799953
H           5.1422067     1.8075755     3.6350925
C           5.4365909     0.5362591     1.8998869
H           6.0505414    -0.1989796     2.4132751
C           5.1623805     0.3834862     0.5444430
H           5.5823681    -0.4373291    -0.0262424
C           4.3644666     1.3560054    -0.0858907
N           3.8984512     2.4386689     0.5550456
C           4.1989250     2.5767624     1.8504193
H           3.8137229     3.4757392     2.3289604
20
061_C7H9N3O_2-0-16-17 (-120,) energy =    -511.6622062
N           4.1988911     1.2806883    -1.5129569
H           3.8727188     2.1656595    -1.8873739
C           3.5978907     0.2249720    -2.2318992
N           3.5838259    -1.0033896    -1.6208564
H           3.6797328    -1.0312880    -0.6151336
C           2.8694932    -2.1013492    -2.2546614
H           1.7798196    -2.0160412    -2.1461214
H           3.2005136    -3.0439705    -1.8100725
H           3.1046758    -2.1031134    -3.3197867
O           3.1706254     0.4227015    -3.3599558
C           4.8609252     1.5990137     2.5686945
H           4.9937162     1.7376475     3.6367492
C           5.4793880     0.5506136     1.8856455
H           6.1251828    -0.1486424     2.4100252
C           5.2863410     0.4244463     0.5131931
H           5.7958103    -0.3406535    -0.0631940
C           4.4433870     1.3484217    -0.1286271
N           3.8483547     2.3610049     0.5170017
C           4.0750974     2.4827914     1.8298224
H           3.5901944     3.3283377     2.3148864
20
061_C7H9N3O_2-0-16-17 (-105,) energy =    -511.6601825
N           4.3860452     1.2633371    -1.5611670
H           4.1066795     2.1568899    -1.9547580
C           3.6737048     0.2502135    -2.2464750
N           3.5982693    -0.9652511    -1.6176333
H           3.7852083    -1.0011863    -0.6254983
C           2.7933553    -2.0299972    -2.1934726
H           1.7294446    -1.9425100    -1.9336924
H           3.1667461    -2.9963604    -1.8420740
H           2.8845720    -1.9809141    -3.2790787
O           3.2228496     0.4670422    -3.3616931
C           4.7788261     1.5310204     2.5646262
H           4.8379538     1.6459107     3.6422226
C           5.5348168     0.5701862     1.8917901
H           6.2139216    -0.0823492     2.4338942
C           5.4305563     0.4763443     0.5063598
H           6.0352100    -0.2199749    -0.0657486
C           4.5413058     1.3372995    -0.1559677
N           3.8066443     2.2580348     0.4809519
C           3.9475856     2.3572552     1.8081715
H           3.3520801     3.1310069     2.2897854
20
061_C7H9N3O_2-0-16-17 (-90,) energy =    -511.6589432
N           4.2742319     1.2165634    -1.5551947
H           5.0725793     1.5846475    -2.0641070
C           3.8922607     0.0196730    -2.2212180
N           2.9402441    -0.6973680    -1.5547592
H           2.4582304    -0.2188558    -0.8032208
C           2.3182740    -1.8597411    -2.1612542
H           1.4110746    -1.6015575    -2.7246798
H           2.0577951    -2.5884415    -1.3872158
H           3.0340499    -2.3075367    -2.8519992
O           4.3805895    -0.2865221    -3.2995172
C           4.8444585     1.4345196     2.5630463
H           4.9347485     1.5321149     3.6402776
C           5.9550209     1.1736883     1.7591228
H           6.9426211     1.0552048     2.1965917
C           5.7788707     1.0557944     0.3837232
H           6.6137896     0.8322737    -0.2738062
C           4.4902382     1.2204082    -0.1447845
N           3.4240296     1.4927791     0.6166933
C           3.6040560     1.5671813     1.9417690
H           2.7097805     1.7655937     2.5299541
20
061_C7H9N3O_2-0-16-17 (-75,) energy =    -511.6635757
N           4.4124020     1.1189091    -1.5425768
H           5.2473425     1.4057531    -2.0439772
C           3.9187726    -0.0366850    -2.2181659
N           2.8949992    -0.6600671    -1.5752401
H           2.4871198    -0.1718808    -0.7855315
C           2.1981185    -1.7823404    -2.1734037
H           1.2926750    -1.4690358    -2.7107725
H           1.9160501    -2.5032424    -1.3992934
H           2.8709743    -2.2625076    -2.8853632
O           4.3974572    -0.3742130    -3.2919353
C           4.8354160     1.4470226     2.5776574
H           4.8838787     1.5658037     3.6552122
C           5.9914807     1.3546773     1.8002925
H           6.9749658     1.3932996     2.2607954
C           5.8714974     1.1981473     0.4237682
H           6.7487297     1.0996881    -0.2089627
C           4.5855949     1.1560202    -0.1381093
N           3.4716648     1.2704226     0.5990739
C           3.6056868     1.3805703     1.9265358
H           2.6770386     1.4427456     2.4910416
20
061_C7H9N3O_2-0-16-17 (-60,) energy =    -511.6677089
N           4.5097609     0.9433562    -1.5566086
H           5.3739008     1.1631681    -2.0402529
C           3.9169427    -0.1533664    -2.2536964
N           2.8212642    -0.6799225    -1.6522812
H           2.4860209    -0.2118754    -0.8157664
C           2.0684499    -1.7648874    -2.2495612
H           1.0866539    -1.4262973    -2.6049101
H           1.9188333    -2.5770346    -1.5287769
H           2.6374602    -2.1408611    -3.1008785
O           4.3951575    -0.5132610    -3.3214490
C           4.7323995     1.4516414     2.5548891
H           4.7298310     1.6068781     3.6286693
C           5.9165291     1.4843387     1.8131929
H           6.8711921     1.6620767     2.3008583
C           5.8660394     1.2731170     0.4417218
H           6.7701816     1.2710840    -0.1602594
C           4.6143964     1.0473114    -0.1590185
N           3.4716650     1.0392019     0.5440806
C           3.5452751     1.2094216     1.8704715
H           2.5969246     1.1695376     2.4031352
20
061_C7H9N3O_2-0-16-17 (-45,) energy =    -511.6707150
N           4.6324460     0.7667555    -1.5403569
H           5.5042836     0.9548939    -2.0209029
C           3.9464867    -0.2538528    -2.2605385
N           2.8127622    -0.7117198    -1.6764864
H           2.5412009    -0.2803166    -0.7969909
C           1.9968547    -1.7374380    -2.2948729
H           0.9954006    -1.3575140    -2.5323110
H           1.8928950    -2.6091883    -1.6373401
H           2.4859622    -2.0448454    -3.2200800
O           4.3966618    -0.6138353    -3.3415916
C           4.7209430     1.4920194     2.5392412
H           4.6870338     1.6922842     3.6048561
C           5.9065146     1.6141091     1.8066129
H           6.8307812     1.9110688     2.2948157
C           5.8987645     1.3407276     0.4471821
H           6.8067551     1.4102980    -0.1450327
C           4.6848492     0.9576820    -0.1573587
N           3.5406902     0.8583595     0.5367649
C           3.5765820     1.1001948     1.8544052
H           2.6289097     0.9867570     2.3774205
20
061_C7H9N3O_2-0-16-17 (-30,) energy =    -511.6725652
N           4.7272027     0.6218382    -1.4928250
H           5.5952509     0.8035707    -1.9804952
C           3.9636463    -0.3107665    -2.2469313
N           2.8120861    -0.7316705    -1.6710942
H           2.5898075    -0.3504027    -0.7545912
C           1.9328308    -1.6756037    -2.3315478
H           0.9477340    -1.2319139    -2.5222309
H           1.7968896    -2.5794855    -1.7250742
H           2.3868492    -1.9509039    -3.2842593
O           4.3798164    -0.6412254    -3.3516515
C           4.7133564     1.5302961     2.5473677
H           4.6581396     1.7671620     3.6044402
C           5.8862980     1.7309725     1.8094567
H           6.7777790     2.1302496     2.2855269
C           5.9086221     1.4085593     0.4625678
H           6.8070089     1.5430895    -0.1331877
C           4.7360462     0.8910484    -0.1283037
N           3.6055345     0.7099900     0.5713070
C           3.6125765     1.0119831     1.8778101
H           2.6762187     0.8344473     2.4032584
20
061_C7H9N3O_2-0-16-17 (-15,) energy =    -511.6735201
N           4.8099195     0.4715266    -1.4542881
H           5.6674689     0.6718396    -1.9514522
C           3.9821072    -0.3653395    -2.2463256
N           2.8166338    -0.7580752    -1.6785475
H           2.6349842    -0.4340721    -0.7312214
C           1.8841148    -1.6188211    -2.3784199
H           0.9154002    -1.1226061    -2.5161111
H           1.7216173    -2.5544040    -1.8290663
H           2.3057892    -1.8498787    -3.3573571
O           4.3678327    -0.6557125    -3.3737142
C           4.6959197     1.5668554     2.5359185
H           4.6192105     1.8424498     3.5821659
C           5.8528628     1.8251895     1.7894545
H           6.7093772     2.3120171     2.2479335
C           5.9033381     1.4519909     0.4574139
H           6.7890294     1.6353013    -0.1443309
C           4.7755325     0.8200851    -0.1121444
N           3.6626603     0.5770378     0.5966584
C           3.6405545     0.9399573     1.8879525
H           2.7180767     0.7145246     2.4194515
20
061_C7H9N3O_2-0-16-17 (0,) energy =    -511.6738109
N           4.8902703     0.3235853    -1.4064995
H           5.7295283     0.5628796    -1.9168227
C           4.0080598    -0.4113852    -2.2377263
N           2.8350067    -0.7897593    -1.6756330
H           2.6857777    -0.5264829    -0.7040567
C           1.8537947    -1.5595067    -2.4139360
H           0.9032895    -1.0171807    -2.4913487
H           1.6651296    -2.5262666    -1.9308286
H           2.2450284    -1.7341100    -3.4168955
O           4.3641810    -0.6463546    -3.3877308
C           4.6768301     1.6010966     2.5241583
H           4.5785145     1.9158029     3.5574714
C           5.8158839     1.9050150     1.7670608
H           6.6354890     2.4693393     2.2036574
C           5.8946062     1.4812453     0.4518888
H           6.7654919     1.7025972    -0.1586134
C           4.8141370     0.7493218    -0.0899499
N           3.7214211     0.4557807     0.6310142
C           3.6683628     0.8771334     1.9036840
H           2.7614396     0.6130971     2.4440865
20
061_C7H9N3O_2-0-16-17 (15,) energy =    -511.6735216
N           4.8513145    -0.0256826    -1.6654078
H           5.6688772     0.2531738    -2.1912207
C           3.9261462    -0.6736130    -2.5239901
N           2.7547662    -1.0518371    -1.9585663
H           2.6278809    -0.8325294    -0.9730622
C           1.7255468    -1.7253064    -2.7249968
H           0.8148054    -1.1166276    -2.7913686
H           1.4679083    -2.6896658    -2.2707361
H           2.1100340    -1.8970159    -3.7310910
O           4.2545748    -0.8565360    -3.6913709
C           4.5313209     1.4901847     2.1730405
H           4.4096794     1.8587096     3.1858848
C           5.6453047     1.8306498     1.3948797
H           6.4203956     2.4799247     1.7930033
C           5.7544576     1.3369412     0.1062474
H           6.6045593     1.5881073    -0.5217537
C           4.7316031     0.4958946    -0.3856182
N           3.6664852     0.1611026     0.3583435
C           3.5784357     0.6585608     1.6010669
H           2.6927750     0.3624711     2.1598376
20
061_C7H9N3O_2-0-16-17 (30,) energy =    -511.6725652
N           4.9717413     0.0025927    -1.2310113
H           5.7780869     0.2785833    -1.7768974
C           3.9912258    -0.5428023    -2.1042956
N           2.8082531    -0.8694433    -1.5309660
H           2.7176881    -0.6972833    -0.5325059
C           1.7217799    -1.4397235    -2.3020906
H           0.8268570    -0.8073578    -2.2513204
H           1.4621555    -2.4416443    -1.9383164
H           2.0469060    -1.5139447    -3.3405348
O           4.2883504    -0.6992169    -3.2833101
C           4.6259863     1.7883883     2.4893228
H           4.5019184     2.2190166     3.4771136
C           5.7024405     2.1377423     1.6648381
H           6.4440415     2.8581939     1.9991704
C           5.8146744     1.5636460     0.4092962
H           6.6327754     1.8231225    -0.2566649
C           4.8360571     0.6318393     0.0019254
N           3.8104156     0.2833498     0.7936924
C           3.7120658     0.8655155     1.9976937
H           2.8558055     0.5596493     2.5957196
20
061_C7H9N3O_2-0-16-17 (45,) energy =    -511.6707155
N           5.0290803    -0.1562140    -1.1544007
H           5.8403366     0.1211389    -1.6942835
C           4.0259321    -0.5897874    -2.0693244
N           2.8230097    -0.8776477    -1.5160730
H           2.7464895    -0.7836149    -0.5067833
C           1.7094103    -1.3496990    -2.3144391
H           0.8414780    -0.6870012    -2.2118395
H           1.4116253    -2.3636387    -2.0195307
H           2.0254741    -1.3646303    -3.3582763
O           4.3198466    -0.7003388    -3.2535016
C           4.6015387     1.8114075     2.4680126
H           4.4613277     2.2799134     3.4363257
C           5.6289062     2.2049761     1.6038068
H           6.3139202     3.0004337     1.8845138
C           5.7622716     1.5787481     0.3738257
H           6.5394375     1.8735176    -0.3255548
C           4.8585742     0.5508673     0.0382327
N           3.8838240     0.1558817     0.8716901
C           3.7557585     0.7933043     2.0435302
H           2.9385986     0.4514227     2.6758816
20
061_C7H9N3O_2-0-16-17 (60,) energy =    -511.6677046
N           5.0772233    -0.3160031    -1.0799363
H           5.9034674    -0.0453233    -1.6024787
C           4.0672264    -0.6312242    -2.0395714
N           2.8444931    -0.8833978    -1.5100155
H           2.7700254    -0.8692188    -0.4973345
C           1.7085442    -1.2381316    -2.3370276
H           0.8778862    -0.5373138    -2.1893504
H           1.3549333    -2.2521335    -2.1126094
H           2.0274552    -1.1993222    -3.3794707
O           4.3642865    -0.6882724    -3.2257532
C           4.5810070     1.8279277     2.4378669
H           4.4292445     2.3338223     3.3855834
C           5.5377358     2.2661700     1.5181644
H           6.1535423     3.1358227     1.7309740
C           5.6875062     1.5864413     0.3166213
H           6.4073260     1.9146086    -0.4277012
C           4.8760903     0.4637420     0.0720954
N           3.9729729     0.0236105     0.9614751
C           3.8191594     0.7139418     2.0987658
H           3.0578453     0.3360170     2.7786408
20
061_C7H9N3O_2-0-16-17 (75,) energy =    -511.6635843
N           5.1193806    -0.4957734    -0.9589824
H           5.9847663    -0.2812589    -1.4447658
C           4.1346657    -0.7042622    -1.9708704
N           2.8684073    -0.8343209    -1.4920990
H           2.7666731    -0.9148958    -0.4863277
C           1.7550717    -1.1555962    -2.3636265
H           0.8763585    -0.5601521    -2.0934702
H           1.4882903    -2.2197866    -2.3138793
H           2.0486369    -0.9204620    -3.3875788
O           4.4658935    -0.7782817    -3.1459774
C           4.5722793     1.8698847     2.4130698
H           4.4138682     2.4289471     3.3295488
C           5.4374922     2.3283447     1.4177771
H           5.9719795     3.2670297     1.5360024
C           5.5994454     1.5743660     0.2606426
H           6.2463068     1.9117334    -0.5439582
C           4.8963567     0.3648244     0.1429558
N           4.0842367    -0.0943278     1.1057206
C           3.9100157     0.6638901     2.1952191
H           3.2214507     0.2687320     2.9399592
20
061_C7H9N3O_2-0-16-17 (90,) energy =    -511.6589397
N           5.1299659    -0.6355981    -0.8542141
H           6.0339165    -0.4907249    -1.2943099
C           4.1843629    -0.7476256    -1.9111253
N           2.8878607    -0.7681397    -1.4834336
H           2.7414676    -0.9146215    -0.4918635
C           1.7960804    -1.0296174    -2.4026746
H           0.9307150    -0.4085322    -2.1486328
H           1.4896244    -2.0843592    -2.3921610
H           2.1363341    -0.7798955    -3.4084603
O           4.5475850    -0.8385513    -3.0750110
C           4.5894598     1.8950060     2.4073608
H           4.4406546     2.4966470     3.2984145
C           5.3079041     2.3785485     1.3131215
H           5.7332474     3.3784041     1.3251546
C           5.4644627     1.5634160     0.1960011
H           5.9979187     1.9108116    -0.6838540
C           4.9062451     0.2771348     0.2195443
N           4.2348130    -0.2020788     1.2735630
C           4.0616887     0.6075959     2.3261162
H           3.4894743     0.1918289     3.1536476
20
061_C7H9N3O_2-0-16-17 (105,) energy =    -511.6601807
N           5.2434864    -0.5389230    -0.9230243
H           5.8199648    -1.3432590    -0.6946778
C           4.2085877    -0.9817375    -1.7815832
N           3.1134592    -0.1639632    -1.8787095
H           2.9687531     0.5296945    -1.1587832
C           1.9585133    -0.5896692    -2.6518150
H           1.3856199     0.2902530    -2.9585686
H           1.3002290    -1.2662551    -2.0897761
H           2.3120867    -1.1171350    -3.5385158
O           4.3493362    -2.0076850    -2.4310070
C           4.7067218     1.8817709     2.4084581
H           4.5721946     2.4635109     3.3147672
C           4.6350166     2.4724671     1.1461870
H           4.4527717     3.5385875     1.0411957
C           4.8298051     1.6809936     0.0171706
H           4.8338919     2.1034222    -0.9825026
C           5.0617214     0.3080998     0.1963734
N           5.1257954    -0.2695922     1.4028305
C           4.9720765     0.5140041     2.4768362
H           5.0525624     0.0148449     3.4410122
20
061_C7H9N3O_2-0-16-17 (120,) energy =    -511.6622071
N           5.1363957    -0.6523282    -0.8182442
H           5.6764719    -1.4731574    -0.5647442
C           4.1531993    -1.0185120    -1.7622359
N           3.0894957    -0.1629582    -1.9035205
H           2.8848987     0.4640852    -1.1376338
C           1.9811789    -0.5472991    -2.7646860
H           1.3917558     0.3421857    -3.0039588
H           1.3264554    -1.2983833    -2.3023651
H           2.3850624    -0.9704480    -3.6852714
O           4.3035358    -2.0262522    -2.4375279
C           4.8003105     1.9112891     2.4244605
H           4.7277911     2.5288617     3.3138157
C           4.5811878     2.4366054     1.1500140
H           4.3447571     3.4889517     1.0172069
C           4.6987572     1.6042370     0.0408746
H           4.5938773     1.9866102    -0.9690407
C           5.0054445     0.2490849     0.2546535
N           5.2217272    -0.2644220     1.4735280
C           5.1366265     0.5615681     2.5224734
H           5.3379534     0.1118562     3.4933406
20
061_C7H9N3O_2-0-16-17 (135,) energy =    -511.6635625
N           5.0306460    -0.7427522    -0.7171329
H           5.5703109    -1.5618376    -0.4614079
C           4.1261435    -1.0438524    -1.7498342
N           3.0756350    -0.1743670    -1.9243684
H           2.7965742     0.3817383    -1.1272043
C           2.0346172    -0.5204390    -2.8821349
H           1.4343973     0.3698805    -3.0887328
H           1.3770115    -1.3229623    -2.5219758
H           2.5065568    -0.8588305    -3.8053969
O           4.3172642    -2.0200908    -2.4608262
C           4.8960369     1.9452557     2.4321719
H           4.8838480     2.5943875     3.3015718
C           4.5462234     2.4128737     1.1645267
H           4.2665301     3.4523311     1.0149178
C           4.5859076     1.5441196     0.0785449
H           4.3811096     1.8913361    -0.9280950
C           4.9531834     0.2058214     0.3109857
N           5.3061746    -0.2498058     1.5224150
C           5.2866375     0.6115832     2.5446953
H           5.5939218     0.2053977     3.5070275
20
061_C7H9N3O_2-0-16-17 (150,) energy =    -511.6642120
N           4.9025084    -0.8235686    -0.6209487
H           5.4625721    -1.6318138    -0.3780272
C           4.0901540    -1.0626765    -1.7366295
N           3.0455545    -0.1892444    -1.9398017
H           2.6893954     0.2952564    -1.1263344
C           2.0833665    -0.4933079    -2.9908750
H           1.4686306     0.3924607    -3.1723503
H           1.4316666    -1.3399242    -2.7370252
H           2.6267992    -0.7469118    -3.9019482
O           4.3361537    -2.0008149    -2.4816586
C           4.9874120     1.9720508     2.4315209
H           5.0382924     2.6477016     3.2789430
C           4.5225666     2.3929973     1.1849291
H           4.2136064     3.4231252     1.0281669
C           4.4797358     1.4928060     0.1251421
H           4.1838911     1.8108322    -0.8676362
C           4.8894910     0.1672436     0.3637748
N           5.3606690    -0.2416676     1.5527979
C           5.4107890     0.6488245     2.5476262
H           5.8090157     0.2768303     3.4903208
20
061_C7H9N3O_2-0-16-17 (165,) energy =    -511.6643188
N           4.7679575    -0.9012832    -0.5183030
H           5.3606791    -1.6910016    -0.2934241
C           4.0587505    -1.0847624    -1.7095553
N           3.0160826    -0.2154401    -1.9453229
H           2.5819226     0.2012404    -1.1319325
C           2.1441939    -0.4764617    -3.0837876
H           1.5127198     0.4001929    -3.2509761
H           1.5076130    -1.3588357    -2.9360529
H           2.7604639    -0.6491709    -3.9670580
O           4.3712065    -1.9825820    -2.4789476
C           5.0730856     1.9920481     2.4270465
H           5.1855168     2.6912846     3.2489686
C           4.5057464     2.3731532     1.2107472
H           4.1745388     3.3959389     1.0510537
C           4.3824974     1.4440955     0.1825838
H           4.0016700     1.7357520    -0.7883608
C           4.8252091     0.1291045     0.4215908
N           5.3980788    -0.2409129     1.5791378
C           5.5164595     0.6754868     2.5433004
H           5.9930810     0.3317338     3.4600279
20
061_C7H9N3O_2-0-16-17 (180,) energy =    -511.6639824
N           3.5395308     1.2418086    -1.2271552
H           3.3187079     2.1458567    -1.6276992
C           3.4356250     0.2072116    -2.1638849
N           3.4750605    -1.0760310    -1.6619025
H           3.1646178    -1.1908798    -0.7055988
C           3.1906057    -2.1802828    -2.5703307
H           2.1372019    -2.2140610    -2.8779454
H           3.4530116    -3.1189680    -2.0752441
H           3.8004104    -2.0648674    -3.4673613
O           3.2970017     0.4598755    -3.3520144
C           5.1753818     1.8027050     2.5365538
H           5.5692466     2.0295881     3.5216759
C           5.3473619     0.5504910     1.9462275
H           5.8995757    -0.2316087     2.4607303
C           4.8253285     0.3010678     0.6809867
H           4.9977303    -0.6464883     0.1870312
C           4.1206708     1.3374819     0.0402849
N           3.9742120     2.5557939     0.5879634
C           4.4916983     2.7688045     1.8002406
H           4.3505149     3.7717953     2.2000782
