20
061_C7H9N3O_0-2-3-5 (-165,) energy =    -511.6731924
N           4.8148205     0.1802034    -1.5335634
H           5.6725867     0.3554334    -2.0393921
C           3.9026592    -0.5308421    -2.3518394
N           2.6787084    -0.7767706    -1.8167020
H           2.5631592    -0.5226100    -0.8374021
C           1.7983975    -1.7591779    -2.4231001
H           0.7553843    -1.4733874    -2.2551864
H           1.9579328    -2.7664044    -2.0131489
H           1.9938650    -1.7867717    -3.4958439
O           4.2739216    -0.8673133    -3.4706620
C           4.6425094     1.5664055     2.3621858
H           4.5545386     1.9111664     3.3867952
C           5.8001923     1.7927271     1.6064146
H           6.6452750     2.3244433     2.0352846
C           5.8646415     1.3341252     0.3020200
H           6.7492782     1.4953361    -0.3075419
C           4.7508005     0.6465755    -0.2295339
N           3.6400850     0.4276658     0.4899517
C           3.6010600     0.8812798     1.7518422
H           2.6782180     0.6781015     2.2915945
20
061_C7H9N3O_0-2-3-5 (-150,) energy =    -511.6708145
N           4.8042946     0.2023297    -1.5616594
H           5.6698462     0.3707964    -2.0569688
C           3.8732867    -0.4396797    -2.4136895
N           2.6247816    -0.6556603    -1.9060910
H           2.5231429    -0.3978799    -0.9250496
C           1.8630499    -1.8065779    -2.3719065
H           0.7961112    -1.6299225    -2.2069447
H           2.1532965    -2.7312416    -1.8529389
H           2.0399134    -1.9361316    -3.4404433
O           4.2546782    -0.7789670    -3.5269459
C           4.6325217     1.5358389     2.3536319
H           4.5437973     1.8677555     3.3824212
C           5.8115778     1.7192311     1.6199243
H           6.6736730     2.2031966     2.0708540
C           5.8753150     1.2795233     0.3087561
H           6.7767227     1.4081758    -0.2837310
C           4.7390476     0.6547550    -0.2513383
N           3.6079142     0.4779967     0.4464229
C           3.5697119     0.9115567     1.7151944
H           2.6292065     0.7444696     2.2364479
20
061_C7H9N3O_0-2-3-5 (-135,) energy =    -511.6665693
N           4.7719309     0.2464405    -1.5992437
H           5.6430164     0.4138753    -2.0859394
C           3.8240358    -0.3270899    -2.4794722
N           2.5614114    -0.5476325    -1.9847176
H           2.4725995    -0.2494322    -1.0128989
C           1.9341500    -1.8351396    -2.2776625
H           0.8540037    -1.7575445    -2.1234709
H           2.3261669    -2.6406506    -1.6400763
H           2.1214289    -2.0900364    -3.3218958
O           4.2049443    -0.6463681    -3.5971537
C           4.6184784     1.4944854     2.3453022
H           4.5343568     1.8071510     3.3804888
C           5.8179964     1.6223469     1.6336761
H           6.7009578     2.0411790     2.1087245
C           5.8757988     1.2100801     0.3130438
H           6.7930251     1.2947698    -0.2628358
C           4.7120815     0.6710484    -0.2776854
N           3.5613289     0.5488665     0.3981058
C           3.5292065     0.9521608     1.6767859
H           2.5719172     0.8312976     2.1798939
20
061_C7H9N3O_0-2-3-5 (-120,) energy =    -511.6609806
N           4.7606668     0.2637553    -1.6432183
H           5.6377408     0.4313814    -2.1199771
C           3.7972903    -0.2323062    -2.5518209
N           2.5212210    -0.4701965    -2.0711906
H           2.4272713    -0.1177031    -1.1175865
C           2.0383047    -1.8512731    -2.1798015
H           0.9641838    -1.8716039    -1.9752308
H           2.5459974    -2.5284457    -1.4772157
H           2.2045625    -2.2092904    -3.1976197
O           4.1737048    -0.5100284    -3.6800384
C           4.6050372     1.4567535     2.3196301
H           4.5194887     1.7572549     3.3583216
C           5.8226085     1.5268476     1.6315945
H           6.7190924     1.8866084     2.1291258
C           5.8810036     1.1323883     0.3051689
H           6.8123407     1.1718648    -0.2526468
C           4.6994560     0.6711759    -0.3140594
N           3.5314643     0.6052475     0.3383074
C           3.4988287     0.9886671     1.6228767
H           2.5269821     0.9154566     2.1068569
20
061_C7H9N3O_0-2-3-5 (-105,) energy =    -511.6548968
N           4.7387125     0.2792893    -1.7078898
H           5.6235702     0.4369970    -2.1742791
C           3.7644406    -0.1575442    -2.6338489
N           2.4787644    -0.4218682    -2.1595620
H           2.3639235     0.0103625    -1.2411849
C           2.1542584    -1.8533220    -2.0471816
H           1.0967442    -1.9536595    -1.7878696
H           2.7564221    -2.3674748    -1.2829664
H           2.3196246    -2.3377928    -3.0122993
O           4.1324739    -0.3877114    -3.7729950
C           4.5868625     1.4044480     2.2760455
H           4.5017780     1.6903450     3.3189054
C           5.8175825     1.4157493     1.6088626
H           6.7252210     1.7132294     2.1268574
C           5.8745654     1.0419814     0.2760937
H           6.8161097     1.0360404    -0.2657180
C           4.6787842     0.6622131    -0.3695197
N           3.4980161     0.6543377     0.2620412
C           3.4667243     1.0149731     1.5531218
H           2.4843248     0.9907244     2.0204629
20
061_C7H9N3O_0-2-3-5 (-90,) energy =    -511.6491890
N           4.7082655     0.2888992    -1.7657474
H           5.6002846     0.4427719    -2.2202774
C           3.7265298    -0.0873577    -2.7084893
N           2.4327869    -0.3908500    -2.2396667
H           2.2844339     0.1281602    -1.3714740
C           2.2715894    -1.8196602    -1.9040258
H           1.2308381    -1.9909382    -1.6157430
H           2.9242899    -2.1482612    -1.0809722
H           2.4852681    -2.4247247    -2.7891138
O           4.0820908    -0.2450915    -3.8610768
C           4.5424771     1.3453348     2.2369751
H           4.4535798     1.6165245     3.2834554
C           5.7834693     1.3085310     1.5906626
H           6.6954628     1.5522528     2.1286690
C           5.8450061     0.9551682     0.2522077
H           6.7941514     0.9117755    -0.2744403
C           4.6434854     0.6457177    -0.4186354
N           3.4527708     0.6848407     0.1920460
C           3.4170532     1.0233689     1.4889030
H           2.4268871     1.0388745     1.9399824
20
061_C7H9N3O_0-2-3-5 (-75,) energy =    -511.6507946
N           4.9481081     0.2353091    -1.6282424
H           5.8558019     0.3834005    -2.0509276
C           3.9974321     0.0446717    -2.6360344
N           2.6567274    -0.1035238    -2.2671911
H           2.1477242     0.0370835    -3.1381573
C           2.2247296    -1.3835309    -1.6749785
H           2.4593469    -2.2448547    -2.3167371
H           1.1421495    -1.3382840    -1.5273033
H           2.6934601    -1.5045354    -0.6985872
O           4.3635425     0.1315618    -3.8014563
C           4.7752767     1.2232960     2.3914511
H           4.6886657     1.4669955     3.4451706
C           5.9491885     1.4751132     1.6737256
H           6.8103533     1.9277870     2.1577287
C           6.0036962     1.1491517     0.3275960
H           6.8960951     1.3472712    -0.2599289
C           4.8672946     0.5645265    -0.2707029
N           3.7501619     0.3032913     0.4098516
C           3.7152599     0.6397567     1.7065948
H           2.7819967     0.4162367     2.2208536
20
061_C7H9N3O_0-2-3-5 (-60,) energy =    -511.6537289
N           4.8999763     0.2716413    -1.6551099
H           5.7942889     0.4780080    -2.0824085
C           3.9410833     0.1486434    -2.6746163
N           2.6388503    -0.1781330    -2.3332860
H           2.1054458    -0.1002466    -3.1951658
C           2.3254514    -1.4335347    -1.6372105
H           2.6592638    -2.3190105    -2.1967590
H           1.2408013    -1.4870075    -1.5093660
H           2.7784681    -1.4236371    -0.6466613
O           4.2832007     0.4037873    -3.8232852
C           4.7507621     1.2384232     2.3721094
H           4.6694817     1.4842992     3.4257065
C           5.9616246     1.3586352     1.6812581
H           6.8583672     1.7052705     2.1877503
C           6.0095757     1.0348975     0.3349093
H           6.9341292     1.1253177    -0.2289719
C           4.8264948     0.5902023    -0.2947208
N           3.6707934     0.4600387     0.3589490
C           3.6469745     0.7849459     1.6593992
H           2.6824843     0.6672924     2.1507024
20
061_C7H9N3O_0-2-3-5 (-45,) energy =    -511.6555852
N           4.8603275     0.2899181    -1.6756499
H           5.7367465     0.5518409    -2.1105749
C           3.8732654     0.2557362    -2.6845660
N           2.6267649    -0.2362867    -2.3760342
H           2.0635760    -0.1843662    -3.2182106
C           2.4060302    -1.4640387    -1.6090579
H           2.8701175    -2.3426943    -2.0789356
H           1.3274027    -1.6308529    -1.5445527
H           2.7862400    -1.3382758    -0.5961659
O           4.1637393     0.6784492    -3.7976017
C           4.7406257     1.2391124     2.3585990
H           4.6656110     1.4859667     3.4124214
C           5.9673766     1.2555298     1.6853269
H           6.8835199     1.5179483     2.2075541
C           6.0070927     0.9349592     0.3379903
H           6.9445590     0.9402734    -0.2115104
C           4.7985378     0.6022332    -0.3118521
N           3.6254331     0.5747817     0.3236864
C           3.6118047     0.8895104     1.6272212
H           2.6332711     0.8559783     2.1034491
20
061_C7H9N3O_0-2-3-5 (-30,) energy =    -511.6564672
N           4.8309402     0.3231140    -1.7413346
H           5.6883770     0.6433668    -2.1751740
C           3.8196088     0.2994431    -2.7326479
N           2.6496032    -0.3374463    -2.4372538
H           2.0146590    -0.2818034    -3.2227944
C           2.4742063    -1.4751251    -1.5421089
H           1.9918512    -2.2928551    -2.0893776
H           1.8707684    -1.2123840    -0.6693072
H           3.4463578    -1.8262336    -1.1905180
O           4.0375457     0.8282539    -3.8166049
C           4.6277544     1.2133492     2.3024644
H           4.5283151     1.4459502     3.3575418
C           5.8754421     1.1887528     1.6695758
H           6.7840323     1.4028924     2.2260016
C           5.9463379     0.8861927     0.3189743
H           6.9004319     0.8543508    -0.2001126
C           4.7467421     0.6173562    -0.3740481
N           3.5514968     0.6346191     0.2205531
C           3.5093290     0.9255285     1.5284414
H           2.5152782     0.9296021     1.9730349
20
061_C7H9N3O_0-2-3-5 (-15,) energy =    -511.6568887
N           4.8137415     0.3200525    -1.7612663
H           5.6512481     0.6855391    -2.1997516
C           3.7715410     0.3423417    -2.7285657
N           2.6759423    -0.4267458    -2.4900925
H           1.9891137    -0.3372656    -3.2257910
C           2.5141898    -1.5073453    -1.5319688
H           1.9935800    -2.3380229    -2.0204098
H           1.9537217    -1.1907703    -0.6479122
H           3.4950478    -1.8621513    -1.2077260
O           3.9242587     0.9836295    -3.7615187
C           4.6018791     1.2202204     2.2809183
H           4.4989979     1.4575408     3.3345984
C           5.8556106     1.1475492     1.6633859
H           6.7648171     1.3265713     2.2311537
C           5.9317149     0.8405985     0.3140654
H           6.8899641     0.7677376    -0.1928323
C           4.7314060     0.6192544    -0.3938719
N           3.5298588     0.6858008     0.1853201
C           3.4825801     0.9758941     1.4936099
H           2.4840153     1.0193921     1.9257405
20
061_C7H9N3O_0-2-3-5 (0,) energy =    -511.6565825
N           4.8249419     0.3204302    -1.7721902
H           5.6431886     0.7234792    -2.2153819
C           3.7516486     0.3731112    -2.7113926
N           2.7321810    -0.5090505    -2.5377891
H           1.9890723    -0.3681212    -3.2079251
C           2.5570928    -1.5264990    -1.5180170
H           2.0293155    -2.3777884    -1.9604881
H           2.0001881    -1.1559479    -0.6521644
H           3.5355877    -1.8716440    -1.1769306
O           3.8349299     1.1076447    -3.6874719
C           4.5953839     1.2243338     2.2678080
H           4.4866208     1.4649373     3.3201403
C           5.8545651     1.1074825     1.6682120
H           6.7611988     1.2528650     2.2495636
C           5.9394605     0.7974903     0.3199282
H           6.9008720     0.6863684    -0.1736429
C           4.7423683     0.6222036    -0.4049637
N           3.5348907     0.7332334     0.1565578
C           3.4787434     1.0206762     1.4651565
H           2.4764263     1.0996038     1.8832883
20
061_C7H9N3O_0-2-3-5 (15,) energy =    -511.6568878
N           5.0117917    -0.0263008    -1.7737436
H           5.9320741     0.2037349    -2.1306327
C           4.6580197    -1.3079730    -2.2774746
N           3.3456632    -1.6611404    -2.2349654
H           3.1968311    -2.5923172    -2.5980460
C           2.1821225    -0.8184493    -2.0177781
H           1.7832297    -0.9230377    -1.0048019
H           1.4095993    -1.0853184    -2.7471929
H           2.4518534     0.2281390    -2.1737753
O           5.5209888    -2.0106992    -2.7903111
C           4.3167746     1.5477185     1.9988322
H           4.1077352     1.9216252     2.9956569
C           5.2353379     2.1812938     1.1542637
H           5.7640949     3.0732625     1.4796177
C           5.4658219     1.6628082    -0.1101803
H           6.1652811     2.1363314    -0.7935908
C           4.7660337     0.5005769    -0.4977966
N           3.8871185    -0.1119328     0.2997084
C           3.6744888     0.4138854     1.5146940
H           2.9501899    -0.1156451     2.1317448
20
061_C7H9N3O_0-2-3-5 (30,) energy =    -511.6564672
N           5.0124996    -0.0147378    -1.7604305
H           5.9116267     0.2523666    -2.1428424
C           4.6540683    -1.2685200    -2.3133889
N           3.3721227    -1.7014646    -2.1377002
H           3.2461341    -2.6045683    -2.5756900
C           2.1789370    -0.8737155    -2.0056653
H           1.7262447    -0.9736013    -1.0157052
H           1.4523127    -1.1642641    -2.7728069
H           2.4351094     0.1764998    -2.1583229
O           5.4936673    -1.9027900    -2.9417729
C           4.3170264     1.5716610     2.0059256
H           4.1066791     1.9513832     3.0002773
C           5.2739710     2.1695907     1.1785282
H           5.8339161     3.0381139     1.5148959
C           5.5044254     1.6442315    -0.0830253
H           6.2373891     2.0889135    -0.7506862
C           4.7629680     0.5133802    -0.4868810
N           3.8452654    -0.0627070     0.2931128
C           3.6371521     0.4662937     1.5071136
H           2.8814480    -0.0345555     2.1103413
20
061_C7H9N3O_0-2-3-5 (45,) energy =    -511.6555845
N           4.9856942     0.0575437    -1.7337470
H           5.8561824     0.3615393    -2.1530684
C           4.6406016    -1.1831410    -2.3121364
N           3.4104981    -1.7280782    -2.0269720
H           3.3439641    -2.6056332    -2.5316501
C           2.1622354    -0.9623392    -2.0354279
H           1.3442402    -1.6503496    -1.8052710
H           1.9632550    -0.4930787    -3.0092805
H           2.1910548    -0.2037022    -1.2544475
O           5.4583487    -1.7340163    -3.0399721
C           4.3900927     1.6741138     2.0378510
H           4.2060201     2.0645419     3.0332367
C           5.3757811     2.2168851     1.2057573
H           5.9859932     3.0515122     1.5403198
C           5.5722287     1.6784110    -0.0556549
H           6.3305314     2.0780007    -0.7235773
C           4.7650003     0.5920895    -0.4580177
N           3.8165260     0.0737738     0.3245232
C           3.6454850     0.6109463     1.5413645
H           2.8626892     0.1548394     2.1452117
20
061_C7H9N3O_0-2-3-5 (60,) energy =    -511.6537289
N           4.9923338     0.1042130    -1.7364337
H           5.8310234     0.4500608    -2.1858278
C           4.6037772    -1.0828074    -2.3798483
N           3.4471827    -1.7220940    -1.9642829
H           3.4237138    -2.5995980    -2.4769769
C           2.1421100    -1.0494930    -2.0209977
H           1.3821082    -1.7580149    -1.6803266
H           1.8846575    -0.7165315    -3.0365968
H           2.1392219    -0.2018558    -1.3368755
O           5.3445922    -1.5423073    -3.2410236
C           4.3917807     1.6893149     2.0454287
H           4.2029057     2.0759212     3.0414171
C           5.4469668     2.1666574     1.2601648
H           6.1097962     2.9430040     1.6326948
C           5.6461883     1.6355389    -0.0039559
H           6.4617706     1.9814780    -0.6333126
C           4.7692138     0.6260968    -0.4576109
N           3.7527335     0.1741017     0.2788352
C           3.5832879     0.6984215     1.5009985
H           2.7446844     0.2966485     2.0673764
20
061_C7H9N3O_0-2-3-5 (75,) energy =    -511.6507946
N           4.9896842     0.1683980    -1.7468458
H           5.7937719     0.5516084    -2.2275687
C           4.5543856    -0.9771890    -2.4205636
N           3.4934273    -1.7072898    -1.8757310
H           3.5331831    -2.5982724    -2.3676739
C           2.1268817    -1.1659322    -1.9992566
H           1.4331612    -1.9051548    -1.5892163
H           1.8486323    -0.9590515    -3.0425952
H           2.0442052    -0.2581591    -1.4019226
O           5.1947717    -1.3552188    -3.3935968
C           4.3904532     1.7227224     2.0464705
H           4.1963193     2.1062409     3.0426857
C           5.5244343     2.1031205     1.3212104
H           6.2470203     2.7965356     1.7428946
C           5.7265118     1.5780696     0.0544089
H           6.6058227     1.8424281    -0.5267483
C           4.7699660     0.6787374    -0.4626796
N           3.6760681     0.3246898     0.2136517
C           3.5086275     0.8338521     1.4419420
H           2.6071641     0.5119099     1.9607086
20
061_C7H9N3O_0-2-3-5 (90,) energy =    -511.6491890
N           4.9185624    -0.1034579    -1.7684452
H           5.7262754     0.2493852    -2.2675186
C           4.3116307    -1.1584687    -2.4844902
N           3.1393433    -1.7354477    -1.9567493
H           3.1591886    -1.6127155    -0.9420171
C           1.9129390    -1.0657679    -2.4338245
H           1.8427945    -0.0134489    -2.1189945
H           1.0486576    -1.6077038    -2.0402131
H           1.8775772    -1.1123079    -3.5254865
O           4.7662343    -1.4324350    -3.5790408
C           4.3778931     1.4170221     2.0474605
H           4.2042666     1.7831541     3.0536260
C           5.3258302     2.0081468     1.2041815
H           5.9145225     2.8567738     1.5416106
C           5.5103717     1.5042404    -0.0733681
H           6.2341012     1.9459861    -0.7524803
C           4.7318433     0.4010850    -0.4812781
N           3.8278631    -0.1726702     0.3223912
C           3.6613513     0.3348294     1.5521995
H           2.9143402    -0.1646909     2.1658726
20
061_C7H9N3O_0-2-3-5 (105,) energy =    -511.6548975
N           4.9146464    -0.0512180    -1.7214808
H           5.7255742     0.2879716    -2.2241955
C           4.2659663    -1.0665247    -2.4599126
N           3.1234200    -1.6513593    -1.9103860
H           3.0872462    -1.4367908    -0.9122237
C           1.8616680    -1.2168231    -2.5317079
H           1.6396555    -0.1550285    -2.3465482
H           1.0449625    -1.8222811    -2.1290005
H           1.9149061    -1.3841451    -3.6099546
O           4.6749044    -1.2941940    -3.5855209
C           4.4257761     1.4453075     2.1102177
H           4.2630508     1.8070738     3.1197659
C           5.4091375     1.9975738     1.2807855
H           6.0373519     2.8109734     1.6333942
C           5.5784366     1.5006317    -0.0012924
H           6.3294201     1.9129006    -0.6692426
C           4.7482827     0.4431104    -0.4293764
N           3.8094578    -0.0924422     0.3610578
C           3.6593367     0.4073509     1.5961947
H           2.8829300    -0.0610887     2.1977239
20
061_C7H9N3O_0-2-3-5 (120,) energy =    -511.6609776
N           4.9010236    -0.0035497    -1.6912284
H           5.7128444     0.3239029    -2.1993899
C           4.2028668    -0.9680173    -2.4544521
N           3.0842345    -1.5516723    -1.8856274
H           2.9976941    -1.2770639    -0.9060407
C           1.8201612    -1.3620858    -2.6057323
H           1.4384947    -0.3344353    -2.5158670
H           1.0719539    -2.0522726    -2.2057592
H           1.9735230    -1.5911706    -3.6620325
O           4.5743205    -1.1583982    -3.6022646
C           4.4655835     1.4586024     2.1588316
H           4.3147225     1.8139781     3.1724556
C           5.4887731     1.9637234     1.3471815
H           6.1609902     2.7323532     1.7186593
C           5.6417187     1.4772680     0.0594535
H           6.4240240     1.8529815    -0.5939487
C           4.7540406     0.4779705    -0.3942976
N           3.7761703    -0.0116008     0.3793441
C           3.6439945     0.4766402     1.6212895
H           2.8347837     0.0463002     2.2078792
20
061_C7H9N3O_0-2-3-5 (135,) energy =    -511.6665711
N           4.8800247     0.0671680    -1.6886253
H           5.6952198     0.3817465    -2.1988057
C           4.1374856    -0.8489491    -2.4707695
N           3.0389204    -1.4286861    -1.8845760
H           2.9013260    -1.1151565    -0.9234684
C           1.8079322    -1.4970254    -2.6704213
H           1.2982143    -0.5243534    -2.7268952
H           1.1293680    -2.2253320    -2.2172593
H           2.0501763    -1.8257865    -3.6822474
O           4.4823705    -1.0157733    -3.6323959
C           4.5140748     1.4624159     2.1918679
H           4.3798524     1.8034070     3.2127267
C           5.5741394     1.9182592     1.3981031
H           6.2926086     2.6322422     1.7914758
C           5.7049080     1.4527253     0.1005844
H           6.5154721     1.7900320    -0.5392146
C           4.7568595     0.5244991    -0.3823150
N           3.7420368     0.0836131     0.3737237
C           3.6337048     0.5496939     1.6265910
H           2.7933910     0.1604302     2.1979918
20
061_C7H9N3O_0-2-3-5 (150,) energy =    -511.6708144
N           4.8587713     0.1135921    -1.6812207
H           5.6721148     0.4201854    -2.1983170
C           4.0649127    -0.7409748    -2.4839312
N           2.9717975    -1.3005980    -1.8881231
H           2.8005145    -0.9724967    -0.9382941
C           1.8048568    -1.6095943    -2.7033980
H           1.1778731    -0.7240122    -2.8801813
H           1.2025284    -2.3737820    -2.2035205
H           2.1405554    -1.9966487    -3.6664004
O           4.3924333    -0.8962641    -3.6537585
C           4.5422642     1.4599814     2.2203212
H           4.4188119     1.7897323     3.2462179
C           5.6339095     1.8672943     1.4427767
H           6.3894076     2.5307609     1.8548495
C           5.7485898     1.4180748     0.1383234
H           6.5841394     1.7177899    -0.4879061
C           4.7519871     0.5559638    -0.3702151
N           3.7059993     0.1622376     0.3703991
C           3.6155392     0.6107624     1.6312905
H           2.7489336     0.2613912     2.1890724
20
061_C7H9N3O_0-2-3-5 (165,) energy =    -511.6731925
N           4.8398528     0.1499159    -1.6748989
H           5.6554522     0.4434290    -2.1954670
C           3.9985055    -0.6440125    -2.4930442
N           2.8929271    -1.1616895    -1.8977154
H           2.7117094    -0.8443160    -0.9472049
C           1.8151515    -1.7044651    -2.7050436
H           1.0892559    -0.9336312    -3.0000178
H           1.2913342    -2.4827000    -2.1417689
H           2.2413690    -2.1416192    -3.6089895
O           4.3220915    -0.8086004    -3.6639283
C           4.5691908     1.4571135     2.2424790
H           4.4567322     1.7780840     3.2724131
C           5.6844746     1.8198267     1.4761118
H           6.4703346     2.4380351     1.9016137
C           5.7834509     1.3846375     0.1658867
H           6.6368190     1.6499285    -0.4517951
C           4.7471856     0.5816332    -0.3607463
N           3.6776859     0.2312984     0.3690920
C           3.6037921     0.6652462     1.6363448
H           2.7171730     0.3530167     2.1846688
20
061_C7H9N3O_0-2-3-5 (180,) energy =    -511.6738123
N           4.8256189     0.1335692    -1.6346497
H           5.6633434     0.3690792    -2.1492164
C           3.9491373    -0.6239086    -2.4515627
N           2.7829516    -1.0075604    -1.8788570
H           2.6267098    -0.7193561    -0.9154829
C           1.8011974    -1.7858431    -2.6073060
H           0.8603139    -1.2327606    -2.7209878
H           1.5897537    -2.7312724    -2.0929785
H           2.2063176    -2.0017388    -3.5966101
O           4.3049588    -0.8745726    -3.5983753
C           4.5967270     1.4947814     2.2667998
H           4.4946207     1.8314026     3.2928083
C           5.7355590     1.7887915     1.5054318
H           6.5510571     2.3671847     1.9311713
C           5.8194597     1.3370129     0.1999344
H           6.6902477     1.5496620    -0.4137927
C           4.7443265     0.5871408    -0.3277207
N           3.6518228     0.3030764     0.3973656
C           3.5935083     0.7518465     1.6604020
H           2.6870223     0.4943929     2.2047094
