20
061_C7H9N3O_16-0-2-3 (-165,) energy =    -511.6555652
N           4.2461075    -0.3261123    -0.8019185
H           5.0929287    -0.7297916    -1.1781196
C           3.0914288    -0.4543992    -1.6017739
N           3.1187278    -1.6290898    -2.3348451
H           3.5966913    -2.4086479    -1.9014785
C           1.9713118    -1.9607579    -3.1672628
H           1.1061143    -2.3000282    -2.5816961
H           2.2572057    -2.7444509    -3.8744627
H           1.6735291    -1.0694015    -3.7213877
O           2.2080265     0.3757220    -1.6853833
C           4.7239948     2.2394746     2.4090427
H           4.7966218     2.8981090     3.2685144
C           5.8444413     1.9093750     1.6433925
H           6.8241290     2.3108556     1.8886949
C           5.6913570     1.0708052     0.5467572
H           6.5373574     0.8155385    -0.0862329
C           4.4082340     0.5679745     0.2637842
N           3.3326593     0.8598810     0.9992191
C           3.4990632     1.6906472     2.0336476
H           2.5977173     1.9162668     2.6016828
20
061_C7H9N3O_16-0-2-3 (-150,) energy =    -511.6546027
N           4.2980718    -0.1551622    -0.9571302
H           5.1294158    -0.6249396    -1.2866987
C           3.1124033    -0.3720177    -1.6914524
N           3.1042285    -1.6213079    -2.2841687
H           3.5977222    -2.3539801    -1.7917255
C           1.9429425    -2.0263558    -3.0620941
H           1.0858180    -2.2988149    -2.4317024
H           2.2120259    -2.8788723    -3.6921628
H           1.6413523    -1.1919184    -3.6970690
O           2.2317566     0.4525512    -1.8367149
C           4.6929476     2.1521686     2.4531931
H           4.7432448     2.7469143     3.3594981
C           5.8377569     1.8464544     1.7126358
H           6.8147226     2.2039281     2.0272129
C           5.7143597     1.0915190     0.5540421
H           6.5803367     0.8592159    -0.0603134
C           4.4324351     0.6440151     0.1818606
N           3.3329301     0.9139149     0.8897675
C           3.4736485     1.6642316     1.9881686
H           2.5534432     1.8734485     2.5317128
20
061_C7H9N3O_16-0-2-3 (-135,) energy =    -511.6530886
N           4.3508071     0.0205863    -1.1211959
H           5.1638238    -0.5072249    -1.4078532
C           3.1397804    -0.2745718    -1.7959854
N           3.0993794    -1.5812535    -2.2372308
H           3.6131526    -2.2614790    -1.6938527
C           1.9245890    -2.0575902    -2.9514808
H           1.0766118    -2.2545245    -2.2821469
H           2.1780064    -2.9743195    -3.4914213
H           1.6186082    -1.2920985    -3.6663155
O           2.2670514     0.5413359    -2.0147720
C           4.6667987     2.0529937     2.4684158
H           4.6970772     2.5796405     3.4166939
C           5.8320767     1.7718764     1.7491014
H           6.8043660     2.0803546     2.1243127
C           5.7369112     1.1051866     0.5356653
H           6.6199160     0.8948243    -0.0619756
C           4.4594883     0.7187777     0.0850751
N           3.3403194     0.9673809     0.7694444
C           3.4555814     1.6318302     1.9252521
H           2.5199840     1.8250449     2.4480642
20
061_C7H9N3O_16-0-2-3 (-120,) energy =    -511.6526679
N           4.6887201    -0.3012917    -1.1185017
H           5.4955417    -0.0862839    -1.6991012
C           3.4869327    -0.3070605    -1.9576353
N           2.9677557    -1.5564959    -2.0478731
H           3.3261790    -2.2342433    -1.3904652
C           1.7241004    -1.8243458    -2.7478652
H           0.8571100    -1.7730490    -2.0766680
H           1.7622099    -2.8168564    -3.2068477
H           1.6054577    -1.0690259    -3.5260438
O           3.0864424     0.6701684    -2.5603479
C           4.4941538     1.9613684     2.3459362
H           4.3845494     2.5248787     3.2667050
C           5.7144339     1.8972240     1.6671911
H           6.5890769     2.4170783     2.0494171
C           5.8012446     1.1689412     0.4882591
H           6.7332218     1.1075002    -0.0672393
C           4.6468032     0.5124449     0.0254003
N           3.4745865     0.5596614     0.6693152
C           3.4124980     1.2773068     1.7966106
H           2.4398005     1.2994230     2.2859265
20
061_C7H9N3O_16-0-2-3 (-105,) energy =    -511.6546939
N           4.7743106    -0.2646142    -1.2239615
H           5.5487057     0.0662159    -1.7944165
C           3.5889255    -0.3215271    -2.0771086
N           2.9595939    -1.5183041    -1.9769273
H           3.2373970    -2.0981197    -1.1974354
C           1.6734877    -1.7570550    -2.6084700
H           0.8368306    -1.4880278    -1.9506450
H           1.5876211    -2.8124264    -2.8833224
H           1.6204164    -1.1432854    -3.5087116
O           3.3032986     0.5652265    -2.8605333
C           4.4017983     1.8475490     2.3239683
H           4.2482493     2.3699823     3.2624507
C           5.6334651     1.8747782     1.6625543
H           6.4727422     2.4264841     2.0778891
C           5.7779556     1.1953536     0.4608147
H           6.7203825     1.2019267    -0.0799174
C           4.6674205     0.4957209    -0.0456766
N           3.4849649     0.4565502     0.5801924
C           3.3679509     1.1264707     1.7332105
H           2.3885454     1.0775323     2.2068682
20
061_C7H9N3O_16-0-2-3 (-90,) energy =    -511.6579490
N           4.8431119    -0.2871217    -1.2719426
H           5.6114617     0.0876337    -1.8226669
C           3.7079235    -0.3927102    -2.1715982
N           2.9262041    -1.4700894    -1.9005511
H           3.0356293    -1.8533057    -0.9704249
C           1.6452704    -1.6469663    -2.5655772
H           0.8363565    -1.1032664    -2.0597451
H           1.3952119    -2.7112702    -2.5960825
H           1.7362611    -1.2684628    -3.5844615
O           3.5978703     0.3345588    -3.1437948
C           4.3696390     1.7530352     2.3086071
H           4.1952587     2.2506826     3.2568047
C           5.5619101     1.9246098     1.5985242
H           6.3477139     2.5691851     1.9834558
C           5.7346157     1.2712171     0.3861754
H           6.6451572     1.3931202    -0.1938616
C           4.6945326     0.4469567    -0.0810705
N           3.5522358     0.2659434     0.5948839
C           3.4038914     0.9175646     1.7551485
H           2.4577749     0.7523526     2.2683804
20
061_C7H9N3O_16-0-2-3 (-75,) energy =    -511.6626262
N           4.9077500    -0.2866601    -1.2864166
H           5.6690017     0.1080750    -1.8321224
C           3.8118549    -0.4687121    -2.2084440
N           2.9050638    -1.3943467    -1.7938727
H           2.8905600    -1.5419014    -0.7898431
C           1.6614405    -1.5768282    -2.5260377
H           0.8986831    -0.8350291    -2.2524293
H           1.2702612    -2.5781905    -2.3256215
H           1.8725876    -1.4795075    -3.5917594
O           3.8401850     0.0524024    -3.3121048
C           4.3809272     1.6903869     2.3230851
H           4.1974907     2.1675335     3.2799903
C           5.5230604     1.9748501     1.5679134
H           6.2583307     2.6907273     1.9254783
C           5.7092994     1.3428542     0.3464893
H           6.5795853     1.5538691    -0.2684973
C           4.7358758     0.4231523    -0.0855246
N           3.6454119     0.1312967     0.6380618
C           3.4787334     0.7666039     1.8053204
H           2.5750050     0.5090723     2.3550780
20
061_C7H9N3O_16-0-2-3 (-60,) energy =    -511.6671972
N           4.9260608    -0.2029282    -1.3149463
H           5.6816127     0.2001184    -1.8600282
C           3.8666906    -0.5026340    -2.2353608
N           2.8903215    -1.2997467    -1.7243846
H           2.8237226    -1.2874034    -0.7095447
C           1.6886926    -1.5645412    -2.4986594
H           0.9469808    -0.7576984    -2.4180435
H           1.2355696    -2.4966553    -2.1494787
H           1.9686136    -1.6715767    -3.5475714
O           3.9744751    -0.1709486    -3.4071584
C           4.4047568     1.6466245     2.3596296
H           4.2275953     2.0926773     3.3324539
C           5.5287868     1.9776541     1.5948854
H           6.2546597     2.6988137     1.9608391
C           5.7094165     1.3845888     0.3545157
H           6.5657858     1.6306626    -0.2669091
C           4.7491709     0.4553686    -0.0914071
N           3.6773932     0.1210758     0.6424181
C           3.5149427     0.7187286     1.8307987
H           2.6260710     0.4246274     2.3859930
20
061_C7H9N3O_16-0-2-3 (-45,) energy =    -511.6705414
N           4.8887370    -0.0948497    -1.3586394
H           5.6445299     0.3023297    -1.9048880
C           3.8706509    -0.5204951    -2.2647204
N           2.8453494    -1.2087496    -1.6989968
H           2.7466870    -1.0931224    -0.6925020
C           1.6909465    -1.5849803    -2.4961731
H           0.9459626    -0.7800264    -2.5663194
H           1.2173915    -2.4646832    -2.0507603
H           2.0284249    -1.8297214    -3.5043253
O           4.0392757    -0.3504948    -3.4652178
C           4.4233685     1.6051416     2.3924535
H           4.2618985     2.0160541     3.3832625
C           5.5423951     1.9514477     1.6256885
H           6.2812133     2.6495965     2.0098084
C           5.7018172     1.4023683     0.3636410
H           6.5557407     1.6592011    -0.2568297
C           4.7247118     0.5009929    -0.1078969
N           3.6572949     0.1548180     0.6267652
C           3.5178817     0.7082998     1.8400064
H           2.6319407     0.4031845     2.3936018
20
061_C7H9N3O_16-0-2-3 (-30,) energy =    -511.6725505
N           4.8468213     0.0178005    -1.3966120
H           5.6175573     0.3891011    -1.9377227
C           3.8785145    -0.5266229    -2.2851486
N           2.8059585    -1.1152912    -1.7001609
H           2.6797452    -0.9321791    -0.7068477
C           1.7098462    -1.6193017    -2.5062332
H           0.9492975    -0.8518365    -2.7073285
H           1.2338930    -2.4569647    -1.9877219
H           2.1082901    -1.9660233    -3.4608995
O           4.1121092    -0.5020195    -3.4878430
C           4.4426446     1.5688741     2.4223348
H           4.2980252     1.9449442     3.4293946
C           5.5626360     1.9214775     1.6587419
H           6.3191961     2.5886366     2.0628633
C           5.7014190     1.4170785     0.3766746
H           6.5569342     1.6767994    -0.2404047
C           4.7017505     0.5536406    -0.1218398
N           3.6316083     0.2057187     0.6083329
C           3.5144675     0.7133783     1.8443392
H           2.6264759     0.4054409     2.3929642
20
061_C7H9N3O_16-0-2-3 (-15,) energy =    -511.6735298
N           4.8584129     0.1443448    -1.4001599
H           5.6615560     0.4612910    -1.9266867
C           3.9441620    -0.5084200    -2.2667982
N           2.8234449    -1.0025250    -1.6870304
H           2.6735063    -0.7666981    -0.7083863
C           1.7856000    -1.6345285    -2.4777930
H           0.9390072    -0.9588116    -2.6608464
H           1.4141547    -2.5281236    -1.9648427
H           2.2140564    -1.9232502    -3.4384160
O           4.2472052    -0.6150271    -3.4502219
C           4.5202263     1.5637974     2.4732582
H           4.3917300     1.9105775     3.4929015
C           5.6517335     1.8999165     1.7186363
H           6.4340970     2.5234195     2.1428713
C           5.7699049     1.4336881     0.4207471
H           6.6349106     1.6801268    -0.1885002
C           4.7371759     0.6257426    -0.1051508
N           3.6538140     0.2975518     0.6148436
C           3.5597214     0.7645894     1.8689766
H           2.6610748     0.4723510     2.4087070
20
061_C7H9N3O_16-0-2-3 (0,) energy =    -511.6737816
N           4.7924084     0.2763577    -1.4482347
H           5.6267377     0.5408420    -1.9542289
C           3.9373241    -0.4887801    -2.2804067
N           2.7889341    -0.9278263    -1.7116738
H           2.6126113    -0.6362715    -0.7529272
C           1.8077228    -1.6757203    -2.4726658
H           0.9440481    -1.0554281    -2.7477430
H           1.4505958    -2.5321173    -1.8902954
H           2.2827238    -2.0351086    -3.3864343
O           4.2959239    -0.7033083    -3.4335567
C           4.5397417     1.5216175     2.4892894
H           4.4324446     1.8285988     3.5240197
C           5.6789582     1.8455872     1.7407098
H           6.4886267     2.4178526     2.1854286
C           5.7712175     1.4309101     0.4235100
H           6.6421892     1.6662405    -0.1816445
C           4.7035625     0.6878104    -0.1279766
N           3.6099890     0.3761598     0.5841489
C           3.5438489     0.7885296     1.8591266
H           2.6374463     0.5093750     2.3928145
20
061_C7H9N3O_16-0-2-3 (15,) energy =    -511.6735301
N           4.7985986     0.3860440    -1.4180870
H           5.6888151     0.5657559    -1.8629956
C           4.0065055    -0.4471843    -2.2495314
N           2.7724261    -0.7547885    -1.7818474
H           2.5591261    -0.4645708    -0.8299542
C           1.8958033    -1.6498639    -2.5114693
H           0.8679045    -1.2730394    -2.4828734
H           1.9074747    -2.6669628    -2.0964066
H           2.2342122    -1.6936631    -3.5475009
O           4.4694713    -0.7889956    -3.3323425
C           4.4626636     1.5148057     2.5499820
H           4.3299852     1.7946420     3.5894663
C           5.6413562     1.8104790     1.8528214
H           6.4583545     2.3318975     2.3442040
C           5.7637665     1.4318071     0.5271212
H           6.6666925     1.6457003    -0.0377943
C           4.6860417     0.7545118    -0.0857798
N           3.5536793     0.4729290     0.5762285
C           3.4599117     0.8464436     1.8613535
H           2.5231683     0.5919669     2.3533248
20
061_C7H9N3O_16-0-2-3 (30,) energy =    -511.6725476
N           4.7119248     0.4134205    -1.5789282
H           5.6034175     0.5094181    -2.0486902
C           3.9117926    -0.5222218    -2.2913371
N           2.6575627    -0.7124930    -1.8118783
H           2.4744975    -0.3495143    -0.8787123
C           1.7890113    -1.7145537    -2.4010016
H           0.7459944    -1.4284140    -2.2370626
H           1.9513359    -2.7145940    -1.9750119
H           1.9848387    -1.7635608    -3.4733415
O           4.3672894    -1.0201471    -3.3141814
C           4.6757440     1.5189544     2.4118591
H           4.6185705     1.7976017     3.4585626
C           5.8273349     1.7539939     1.6500049
H           6.6990584     2.2247720     2.0964083
C           5.8529215     1.3781246     0.3176137
H           6.7335679     1.5440602    -0.2964639
C           4.7060612     0.7671034    -0.2344055
N           3.5973135     0.5479283     0.4881315
C           3.5986851     0.9134955     1.7786741
H           2.6784082     0.7091025     2.3224298
20
061_C7H9N3O_16-0-2-3 (45,) energy =    -511.6705401
N           4.6429976     0.5157500    -1.6174177
H           5.5452879     0.5881681    -2.0734829
C           3.9045957    -0.5179920    -2.2691415
N           2.6128613    -0.6453861    -1.8691632
H           2.3922089    -0.2239350    -0.9692763
C           1.8000056    -1.7403062    -2.3694799
H           0.7439993    -1.4655782    -2.2946998
H           1.9624695    -2.6751250    -1.8148784
H           2.0531424    -1.9143262    -3.4163983
O           4.4259288    -1.1217130    -3.1976966
C           4.6929436     1.4657223     2.4164735
H           4.6536558     1.7056802     3.4735936
C           5.8407282     1.7020628     1.6504395
H           6.7287894     2.1339131     2.1039416
C           5.8425690     1.3744782     0.3042020
H           6.7215228     1.5389829    -0.3126540
C           4.6754097     0.8134504    -0.2548609
N           3.5681090     0.5966640     0.4702932
C           3.5939896     0.9103141     1.7736301
H           2.6754415     0.7078223     2.3210968
20
061_C7H9N3O_16-0-2-3 (60,) energy =    -511.6671959
N           4.5601933     0.6022101    -1.6584367
H           5.4654760     0.6717307    -2.1123982
C           3.8904334    -0.5244239    -2.2429033
N           2.5636798    -0.5974688    -1.9529671
H           2.2886392    -0.1019673    -1.1083285
C           1.7952722    -1.7629992    -2.3590199
H           0.7359036    -1.4951483    -2.4024214
H           1.9188167    -2.6120256    -1.6723571
H           2.1291121    -2.0713034    -3.3508197
O           4.4831780    -1.2276978    -3.0483386
C           4.7145784     1.4053085     2.4074431
H           4.6973314     1.6086235     3.4728885
C           5.8518506     1.6514033     1.6303941
H           6.7544200     2.0530015     2.0830930
C           5.8256460     1.3698274     0.2727812
H           6.6972088     1.5391571    -0.3531668
C           4.6404355     0.8483787    -0.2819486
N           3.5409579     0.6241674     0.4527479
C           3.5951437     0.8887295     1.7652907
H           2.6836753     0.6812176     2.3228896
20
061_C7H9N3O_16-0-2-3 (75,) energy =    -511.6626255
N           4.4795971     0.6406199    -1.6727547
H           5.3820280     0.7178930    -2.1340221
C           3.8732479    -0.5643351    -2.1872071
N           2.5187253    -0.5838793    -2.0617765
H           2.1604572     0.0133195    -1.3235116
C           1.7740594    -1.7920787    -2.3807403
H           0.7377592    -1.5255772    -2.6062742
H           1.7837176    -2.5222925    -1.5599925
H           2.2265181    -2.2533490    -3.2596025
O           4.5390092    -1.3703598    -2.8176863
C           4.7411027     1.3484967     2.4070555
H           4.7483160     1.5254024     3.4773951
C           5.8528583     1.6347939     1.6084839
H           6.7595604     2.0419590     2.0478861
C           5.7966603     1.3847552     0.2445777
H           6.6490821     1.5841194    -0.3986633
C           4.6071828     0.8557761    -0.2896782
N           3.5302132     0.5927308     0.4645232
C           3.6140612     0.8260733     1.7807432
H           2.7219127     0.5879466     2.3575076
20
061_C7H9N3O_16-0-2-3 (90,) energy =    -511.6579492
N           4.4340481     0.6028351    -1.6428324
H           5.3273339     0.6919484    -2.1205364
C           3.8546131    -0.6519456    -2.0888656
N           2.5014724    -0.5936027    -2.1933372
H           2.0652736     0.1557758    -1.6716718
C           1.7216503    -1.7950561    -2.4438835
H           0.7838618    -1.5234701    -2.9367846
H           1.4950267    -2.3432130    -1.5197662
H           2.3000637    -2.4447307    -3.1019485
O           4.5541104    -1.5758564    -2.4673942
C           4.7835399     1.3039971     2.4306084
H           4.8137072     1.4732201     3.5018663
C           5.8327132     1.7003491     1.5955586
H           6.7122245     2.1895770     2.0057451
C           5.7497920     1.4554293     0.2318592
H           6.5533422     1.7417221    -0.4409950
C           4.5968828     0.8180555    -0.2621599
N           3.5804615     0.4432485     0.5258366
C           3.6899192     0.6782691     1.8394633
H           2.8479405     0.3493240     2.4466741
20
061_C7H9N3O_16-0-2-3 (105,) energy =    -511.6546937
N           4.3956869     0.5697625    -1.5723016
H           5.2651090     0.6718503    -2.0902261
C           3.8093821    -0.7172723    -1.9411151
N           2.5052310    -0.5895760    -2.2893432
H           2.0662585     0.2855269    -2.0393977
C           1.6683925    -1.7495099    -2.5427650
H           0.8984654    -1.4953857    -3.2771430
H           1.1850045    -2.1150009    -1.6274131
H           2.3021314    -2.5422827    -2.9426010
O           4.4705335    -1.7350696    -2.0340070
C           4.8699698     1.2938864     2.4821563
H           4.9339142     1.4618505     3.5521860
C           5.8258797     1.8081839     1.6007109
H           6.6633980     2.3929297     1.9720637
C           5.7033515     1.5602573     0.2404915
H           6.4325481     1.9413189    -0.4692039
C           4.6072526     0.7964726    -0.2005355
N           3.6820951     0.3035121     0.6316455
C           3.8266232     0.5489953     1.9396150
H           3.0588676     0.1237345     2.5843509
20
061_C7H9N3O_16-0-2-3 (120,) energy =    -511.6526675
N           4.2892623     0.5812617    -1.4808395
H           5.0960631     0.7520419    -2.0759817
C           3.7270482    -0.7324528    -1.8072509
N           2.4991077    -0.6056562    -2.3683678
H           2.0679241     0.3043340    -2.2909527
C           1.6839362    -1.7593483    -2.7044273
H           1.0829133    -1.5434807    -3.5928688
H           1.0164663    -2.0432459    -1.8805913
H           2.3524636    -2.5958308    -2.9130611
O           4.3393149    -1.7746042    -1.6742982
C           5.0071094     1.3220574     2.5311055
H           5.1334264     1.4940040     3.5949902
C           5.8924341     1.8590080     1.5920756
H           6.7366616     2.4653197     1.9098983
C           5.6919133     1.6034115     0.2421602
H           6.3677630     1.9988998    -0.5113329
C           4.5895407     0.8126408    -0.1285375
N           3.7303934     0.2987829     0.7595903
C           3.9510241     0.5488714     2.0551368
H           3.2362846     0.1056324     2.7470517
20
061_C7H9N3O_16-0-2-3 (135,) energy =    -511.6530903
N           4.3135564     0.1988650    -1.2198404
H           4.5043094     0.8595971    -1.9606119
C           3.4954038    -0.9078358    -1.5583748
N           2.6090118    -0.6028010    -2.5709094
H           2.2977396     0.3573526    -2.6280356
C           1.6873146    -1.6243405    -3.0444697
H           1.2964133    -1.3315365    -4.0230424
H           0.8491602    -1.7873505    -2.3539631
H           2.2314391    -2.5651446    -3.1414293
O           3.6030894    -2.0107641    -1.0611403
C           5.1537587     1.4709387     2.6262276
H           5.3337786     1.7730595     3.6527992
C           5.8559676     2.0412212     1.5604657
H           6.6088966     2.8049763     1.7366862
C           5.5946890     1.6105893     0.2672578
H           6.1419260     2.0127697    -0.5811939
C           4.6092077     0.6219085     0.0793785
N           3.9205876     0.0799295     1.0866971
C           4.2071856     0.4944521     2.3262782
H           3.6326243     0.0211348     3.1211455
20
061_C7H9N3O_16-0-2-3 (150,) energy =    -511.6546026
N           4.1115952     0.3239438    -1.1598148
H           4.3677146     0.9493001    -1.9106651
C           3.3789074    -0.8291553    -1.5147915
N           2.5937985    -0.6072713    -2.6312329
H           2.2464637     0.3345535    -2.7544786
C           1.7481344    -1.6836832    -3.1252941
H           1.4396255    -1.4568960    -4.1497737
H           0.8553577    -1.8388131    -2.5046745
H           2.3254525    -2.6094882    -3.1210020
O           3.4664790    -1.9015728    -0.9502389
C           5.2479033     1.4388649     2.6575350
H           5.5023578     1.7045460     3.6784576
C           5.9217525     1.9943758     1.5667341
H           6.7268835     2.7089972     1.7160657
C           5.5636690     1.6104913     0.2815037
H           6.0853343     2.0015951    -0.5881084
C           4.5134484     0.6853526     0.1292516
N           3.8495388     0.1604624     1.1621243
C           4.2294475     0.5261505     2.3914329
H           3.6732780     0.0678293     3.2079129
20
061_C7H9N3O_16-0-2-3 (165,) energy =    -511.6555624
N           3.9149281     0.4493118    -1.1093616
H           4.2433128     1.0314349    -1.8675904
C           3.2859176    -0.7576940    -1.4797862
N           2.6089323    -0.6207402    -2.6803911
H           2.2270772     0.2975450    -2.8675858
C           1.8390636    -1.7501363    -3.1819738
H           1.6057900    -1.5833045    -4.2373263
H           0.9052078    -1.9077812    -2.6255536
H           2.4434573    -2.6534353    -3.0871641
O           3.3641726    -1.8006528    -0.8613224
C           5.3408552     1.3978171     2.6571242
H           5.6664914     1.6244239     3.6672565
C           5.9898390     1.9323323     1.5419188
H           6.8469643     2.5901410     1.6592303
C           5.5376073     1.5992351     0.2715419
H           6.0360383     1.9753142    -0.6182131
C           4.4227100     0.7483885     0.1609807
N           3.7813222     0.2464871     1.2191618
C           4.2511656     0.5586171     2.4314955
H           3.7111489     0.1202508     3.2694848
20
061_C7H9N3O_16-0-2-3 (180,) energy =    -511.6556333
N           4.1756294    -0.4800905    -0.6479162
H           5.0276237    -0.8500899    -1.0493852
C           3.0540218    -0.5414008    -1.5023703
N           3.1498371    -1.6143076    -2.3765092
H           3.6487920    -2.4227514    -2.0262234
C           2.0207713    -1.8987730    -3.2516372
H           1.1690854    -2.3421814    -2.7179267
H           2.3458857    -2.5818524    -4.0413400
H           1.6857652    -0.9636700    -3.7024732
O           2.1445525     0.2638754    -1.5194169
C           4.7518842     2.3128255     2.3555983
H           4.8508277     3.0301900     3.1639985
C           5.8445331     1.9415353     1.5697673
H           6.8283000     2.3682816     1.7462736
C           5.6567458     1.0269680     0.5406682
H           6.4803538     0.7365611    -0.1066931
C           4.3702653     0.4938205     0.3465782
N           3.3223665     0.8236229     1.1045831
C           3.5195593     1.7268067     2.0704764
H           2.6395181     1.9822342     2.6588475
