22
176_C9H11NO_7-0-2-3 (-165,) energy =    -479.5736876
N           2.0230841    -1.6749929    -0.1770936
H           2.8478640    -2.2357937    -0.3411495
C           2.1402092    -0.3225289    -0.3201899
C           3.5469114     0.2055754    -0.6697992
H           3.6772196     1.1174635    -0.0781438
H           3.4841109     0.5286412    -1.7164870
O           1.1957401     0.4517323    -0.2325199
C           0.7311485    -2.3383303    -0.1678555
H           0.6961826    -3.1070087     0.6115852
H           0.5103355    -2.8067146    -1.1361381
H          -0.0264826    -1.5812443     0.0388447
C           6.8597908    -2.5240504    -0.1047079
H           7.6893941    -3.2108192     0.0394763
C           6.3925973    -1.7521880     0.9618627
H           6.8584605    -1.8366368     1.9401390
C           5.3300429    -0.8685317     0.7751941
H           4.9718194    -0.2702658     1.6099331
C           4.7149084    -0.7352143    -0.4790417
C           5.1951192    -1.5157392    -1.5411810
H           4.7380965    -1.4178817    -2.5238461
C           6.2577811    -2.4033458    -1.3577091
H           6.6184387    -2.9939452    -2.1957885
22
176_C9H11NO_7-0-2-3 (-150,) energy =    -479.5710228
N           2.0155625    -1.6831317    -0.0685204
H           2.8175623    -2.2374878    -0.3414015
C           2.1765260    -0.3240996    -0.1632822
C           3.5525965     0.1663881    -0.6570957
H           3.7264410     1.1288382    -0.1660640
H           3.4109051     0.3845176    -1.7236009
O           1.2696279     0.4736252     0.0295858
C           0.7081359    -2.2949094    -0.2572570
H           0.6094236    -3.1889777     0.3665762
H           0.5382489    -2.5736664    -1.3062211
H          -0.0471757    -1.5667368     0.0412101
C           6.8910682    -2.5298461    -0.0857769
H           7.7270661    -3.2080497     0.0617708
C           6.4561764    -1.7130135     0.9611903
H           6.9532646    -1.7542469     1.9267700
C           5.3855651    -0.8405599     0.7715226
H           5.0519358    -0.2080353     1.5910026
C           4.7296020    -0.7638564    -0.4667213
C           5.1777348    -1.5879089    -1.5092936
H           4.6908567    -1.5319948    -2.4810057
C           6.2489447    -2.4650300    -1.3224801
H           6.5844353    -3.0903443    -2.1456860
22
176_C9H11NO_7-0-2-3 (-135,) energy =    -479.5664579
N           1.9963736    -1.7772223     0.0615248
H           2.7971253    -2.3181332    -0.2465472
C           2.1818420    -0.4121936    -0.0201933
C           3.5075281     0.0626076    -0.6470601
H           3.6947130     1.0666384    -0.2541255
H           3.2848676     0.1803477    -1.7158303
O           1.3022960     0.3929990     0.2447391
C           0.7118981    -2.3550934    -0.3258650
H           0.5877403    -3.3382760     0.1374873
H           0.6229213    -2.4610680    -1.4163326
H          -0.0806846    -1.6947025     0.0288529
C           6.9353272    -2.5227334    -0.0898971
H           7.7942608    -3.1723789     0.0543939
C           6.5067823    -1.6848281     0.9432005
H           7.0320422    -1.6813586     1.8946172
C           5.4067969    -0.8491209     0.7577111
H           5.0782631    -0.1998614     1.5661228
C           4.7141747    -0.8313594    -0.4629018
C           5.1552595    -1.6762148    -1.4910750
H           4.6395423    -1.6659660    -2.4493776
C           6.2565606    -2.5164066    -1.3082250
H           6.5858185    -3.1590423    -2.1205218
22
176_C9H11NO_7-0-2-3 (-120,) energy =    -479.5602928
N           1.9607626    -1.7785076     0.1728331
H           2.7730939    -2.3138379    -0.1204438
C           2.1962443    -0.4084613     0.1169341
C           3.4807438     0.0445491    -0.6045108
H           3.6811198     1.0694714    -0.2781188
H           3.1977301     0.0971525    -1.6645789
O           1.3569310     0.4105584     0.4501659
C           0.7333659    -2.2935407    -0.4398088
H           0.5631778    -3.3232388    -0.1126276
H           0.7752428    -2.2716447    -1.5387214
H          -0.1056564    -1.6794066    -0.1080423
C           6.9487485    -2.4956564    -0.0892056
H           7.8175593    -3.1341176     0.0453977
C           6.5580712    -1.6178286     0.9255479
H           7.1225499    -1.5719930     1.8530776
C           5.4451988    -0.7966777     0.7523855
H           5.1467850    -0.1159756     1.5465134
C           4.7017382    -0.8339546    -0.4374782
C           5.1051103    -1.7182470    -1.4475934
H           4.5495435    -1.7511306    -2.3828558
C           6.2193875    -2.5436908    -1.2769738
H           6.5187358    -3.2178634    -2.0751321
22
176_C9H11NO_7-0-2-3 (-105,) energy =    -479.5534579
N           1.9024341    -1.7851618     0.2765873
H           2.7318577    -2.3210348     0.0286371
C           2.1896090    -0.4099360     0.2427134
C           3.4279544     0.0254219    -0.5644751
H           3.6340605     1.0657224    -0.2961036
H           3.0926637     0.0220048    -1.6110028
O           1.4010019     0.4186797     0.6557883
C           0.7745697    -2.2326813    -0.5529726
H           0.5715433    -3.2869665    -0.3449768
H           0.9632162    -2.1147898    -1.6312333
H          -0.1116589    -1.6523479    -0.2872950
C           6.9361211    -2.4683105    -0.0966189
H           7.8149895    -3.0951052     0.0269203
C           6.5845735    -1.5487299     0.8950996
H           7.1893525    -1.4584548     1.7934858
C           5.4586657    -0.7424848     0.7361316
H           5.1910319    -0.0286020     1.5119010
C           4.6632847    -0.8372375    -0.4162975
C           5.0275226    -1.7630523    -1.4036076
H           4.4308763    -1.8409938    -2.3104507
C           6.1547709    -2.5733736    -1.2471267
H           6.4232593    -3.2807600    -2.0272967
22
176_C9H11NO_7-0-2-3 (-90,) energy =    -479.5525736
N           1.0106175    -0.9361015    -0.6214488
H           0.4241044    -1.1349058    -1.4347053
C           2.3373310    -1.1771193    -1.0740270
C           3.3994991    -0.3771157    -0.3187176
H           3.0458564    -0.1600456     0.6947413
H           3.4052392     0.5916335    -0.8405768
O           2.5622581    -1.7629223    -2.1156719
C           0.5413633    -1.8230787     0.4630456
H           0.5613500    -2.8853274     0.1828869
H          -0.4812847    -1.5433573     0.7305289
H           1.1679800    -1.6884120     1.3508468
C           7.3787298    -2.0692146    -0.1889799
H           8.3803504    -2.4895277    -0.1529139
C           6.6797672    -1.8179914     0.9917100
H           7.1327588    -2.0418131     1.9541036
C           5.3939917    -1.2766707     0.9394024
H           4.8551089    -1.0811134     1.8643524
C           4.7878845    -0.9771555    -0.2867041
C           5.4994840    -1.2328398    -1.4676980
H           5.0361869    -1.0203675    -2.4252645
C           6.7832014    -1.7755660    -1.4177550
H           7.3205160    -1.9691929    -2.3425870
22
176_C9H11NO_7-0-2-3 (-75,) energy =    -479.5580839
N           1.0324787    -1.0331900    -0.6685292
H           0.4159000    -1.3102779    -1.4333288
C           2.3350052    -1.0682801    -1.1964556
C           3.3843101    -0.3082437    -0.3795358
H           3.0091058    -0.1038198     0.6276860
H           3.4467962     0.6662885    -0.8844842
O           2.5501105    -1.4582293    -2.3312754
C           0.7294430    -1.8646671     0.5083102
H           0.8336383    -2.9393734     0.3061424
H          -0.2951075    -1.6623230     0.8325997
H           1.3986603    -1.6036464     1.3335854
C           7.3008352    -2.1373366    -0.1528061
H           8.2860813    -2.5921626    -0.0925242
C           6.5787289    -1.8693065     1.0100931
H           6.9971073    -2.1148328     1.9828369
C           5.3140781    -1.2835940     0.9268999
H           4.7574915    -1.0751031     1.8385195
C           4.7531323    -0.9554226    -0.3132311
C           5.4874177    -1.2275975    -1.4767320
H           5.0548918    -0.9937943    -2.4435817
C           6.7494591    -1.8155796    -1.3951716
H           7.3049565    -2.0219129    -2.3064533
22
176_C9H11NO_7-0-2-3 (-60,) energy =    -479.5626575
N           1.1186905    -1.1478672    -0.6428277
H           0.4657217    -1.4757777    -1.3533005
C           2.2965782    -0.7874381    -1.2935321
C           3.3558099    -0.0821453    -0.4417033
H           2.9604968     0.1576479     0.5493874
H           3.5379952     0.8679899    -0.9584104
O           2.4023915    -0.8635634    -2.5085954
C           1.1445569    -2.0662221     0.5020886
H           1.4471652    -3.0839766     0.2209872
H           0.1485667    -2.1044292     0.9522447
H           1.8414477    -1.7005094     1.2609199
C           7.0696669    -2.2818415    -0.0648985
H           8.0031725    -2.8300776     0.0303062
C           6.3817099    -1.8646454     1.0744344
H           6.7754318    -2.0862905     2.0630756
C           5.1826779    -1.1597813     0.9480207
H           4.6536406    -0.8332853     1.8412064
C           4.6568623    -0.8593090    -0.3139441
C           5.3557362    -1.2821163    -1.4540935
H           4.9460172    -1.0635199    -2.4354149
C           6.5513396    -1.9887398    -1.3287677
H           7.0809387    -2.3104402    -2.2218576
22
176_C9H11NO_7-0-2-3 (-45,) energy =    -479.5660241
N           1.2092034    -1.2502631    -0.6900452
H           0.5754390    -1.6332139    -1.3874924
C           2.2731262    -0.6442516    -1.3352764
C           3.3370088     0.0182973    -0.4568885
H           2.9340394     0.2633139     0.5304241
H           3.5750148     0.9612213    -0.9612865
O           2.2990068    -0.5385521    -2.5543150
C           1.3647991    -2.1191907     0.4763193
H           1.8568008    -3.0712381     0.2351794
H           0.3770481    -2.3289514     0.8965670
H           1.9548118    -1.6169617     1.2464163
C           6.9384009    -2.3602527    -0.0576523
H           7.8443326    -2.9524417     0.0403304
C           6.2802845    -1.8900761     1.0787715
H           6.6705237    -2.1140274     2.0682559
C           5.1163701    -1.1291242     0.9487085
H           4.6116744    -0.7611935     1.8398041
C           4.5967376    -0.8242903    -0.3147363
C           5.2650557    -1.3011267    -1.4520314
H           4.8624519    -1.0751370    -2.4352730
C           6.4257235    -2.0630233    -1.3228804
H           6.9323352    -2.4249923    -2.2138252
22
176_C9H11NO_7-0-2-3 (-30,) energy =    -479.5679676
N           1.2965845    -1.3694683    -0.7578698
H           0.6993462    -1.8074258    -1.4521192
C           2.2777715    -0.6211608    -1.3684964
C           3.3309320     0.0327597    -0.4716128
H           2.9205340     0.2753033     0.5136784
H           3.5848170     0.9758561    -0.9666770
O           2.2716546    -0.4376568    -2.5799236
C           1.4437660    -2.1117648     0.4888634
H           2.1273116    -2.9669481     0.4012931
H           0.4600041    -2.4780147     0.7950726
H           1.8138696    -1.4581834     1.2825399
C           6.9000292    -2.3916255    -0.0588164
H           7.7984156    -2.9947495     0.0417464
C           6.2415331    -1.9185988     1.0762247
H           6.6239022    -2.1512600     2.0667757
C           5.0870781    -1.1436544     0.9436770
H           4.5817306    -0.7740249     1.8335745
C           4.5779078    -0.8274026    -0.3211395
C           5.2464680    -1.3078648    -1.4569374
H           4.8520804    -1.0718580    -2.4413778
C           6.3976657    -2.0834309    -1.3256085
H           6.9047149    -2.4473766    -2.2154892
22
176_C9H11NO_7-0-2-3 (-15,) energy =    -479.5687734
N           1.3370749    -1.4384200    -0.7607418
H           0.7455631    -1.8994629    -1.4413527
C           2.2738946    -0.6291914    -1.3485915
C           3.3160506     0.0195487    -0.4347373
H           2.9074761     0.2271735     0.5593867
H           3.5578064     0.9794889    -0.9024110
O           2.2707012    -0.4273260    -2.5580720
C           1.3812508    -2.0013706     0.5816590
H           2.2807806    -2.6039775     0.7582569
H           0.5053280    -2.6409997     0.7130614
H           1.3331219    -1.2167204     1.3447646
C           6.9099368    -2.3799789    -0.0980319
H           7.8143882    -2.9768765    -0.0164160
C           6.2384539    -1.9630722     1.0511687
H           6.6165459    -2.2332089     2.0338370
C           5.0763277    -1.1954628     0.9430400
H           4.5614956    -0.8680523     1.8438936
C           4.5723215    -0.8315892    -0.3112223
C           5.2536495    -1.2566461    -1.4613751
H           4.8608475    -0.9855653    -2.4373143
C           6.4126969    -2.0240099    -1.3544314
H           6.9297895    -2.3446360    -2.2551419
22
176_C9H11NO_7-0-2-3 (0,) energy =    -479.5690508
N           1.4209699    -1.4955467    -0.8454288
H           0.7712839    -1.8790041    -1.5196391
C           2.3024083    -0.6018407    -1.3869488
C           3.3391598     0.0163054    -0.4448526
H           2.9193165     0.2002129     0.5497880
H           3.5887011     0.9877437    -0.8836962
O           2.2822801    -0.3307524    -2.5831404
C           1.3381473    -1.9441553     0.5350673
H           2.3204797    -2.2401960     0.9162702
H           0.6862294    -2.8202270     0.5750093
H           0.9166247    -1.1792509     1.2015036
C           6.9234361    -2.3990775    -0.1238528
H           7.8254948    -3.0001552    -0.0465645
C           6.2658479    -1.9682967     1.0280881
H           6.6529339    -2.2313948     2.0091457
C           5.1064832    -1.1955905     0.9247595
H           4.6032224    -0.8553708     1.8275737
C           4.5909872    -0.8412511    -0.3277028
C           5.2591976    -1.2790752    -1.4807157
H           4.8598517    -1.0131871    -2.4555570
C           6.4153425    -2.0512188    -1.3782624
H           6.9218756    -2.3823753    -2.2811485
22
176_C9H11NO_7-0-2-3 (15,) energy =    -479.5687235
N           1.4701200    -1.6112276    -0.7682284
H           0.7756386    -1.9407597    -1.4274088
C           2.2464053    -0.6049518    -1.2792980
C           3.3016540     0.0064527    -0.3532973
H           2.9020437     0.1782990     0.6521112
H           3.5372541     0.9838153    -0.7859322
O           2.1507314    -0.2627738    -2.4529497
C           1.3094481    -1.9792932     0.6292971
H           2.2830512    -2.1437070     1.0993161
H           0.7568026    -2.9210821     0.6782434
H           0.7563425    -1.2278200     1.2107152
C           6.8980299    -2.4010635    -0.1345684
H           7.8030612    -3.0004132    -0.0831868
C           6.2661391    -1.9823304     1.0359911
H           6.6762156    -2.2525694     2.0057006
C           5.1027665    -1.2119492     0.9659197
H           4.6208219    -0.8805511     1.8835762
C           4.5573435    -0.8485786    -0.2710020
C           5.2004977    -1.2736587    -1.4426827
H           4.7795074    -0.9994561    -2.4063015
C           6.3606337    -2.0433411    -1.3739955
H           6.8473384    -2.3647379    -2.2911823
22
176_C9H11NO_7-0-2-3 (30,) energy =    -479.5674953
N           1.5368418    -1.7991346    -0.6806118
H           0.8390716    -2.1372709    -1.3345396
C           2.2086419    -0.7133961    -1.1932601
C           3.2756542    -0.0672426    -0.3048038
H           2.8983605     0.1139631     0.7077839
H           3.4824727     0.9075215    -0.7571715
O           2.0489473    -0.3618655    -2.3559729
C           1.2567541    -2.0410320     0.7289220
H           2.1877413    -2.0898695     1.2999900
H           0.7648468    -3.0127773     0.8217988
H           0.6030135    -1.2793409     1.1776203
C           6.9097509    -2.4191558    -0.1379664
H           7.8242556    -3.0049402    -0.0996990
C           6.2827005    -2.0192720     1.0416754
H           6.7062551    -2.2907464     2.0052185
C           5.1072854    -1.2659922     0.9887990
H           4.6290536    -0.9487242     1.9133754
C           4.5449356    -0.9018686    -0.2398756
C           5.1834577    -1.3076479    -1.4207800
H           4.7494023    -1.0329197    -2.3786070
C           6.3555863    -2.0600013    -1.3696536
H           6.8384562    -2.3667447    -2.2938546
22
176_C9H11NO_7-0-2-3 (45,) energy =    -479.5650967
N           1.5698182    -1.8445813    -0.5907362
H           0.9437218    -2.2273933    -1.2940719
C           2.2760345    -0.7924949    -1.1472372
C           3.3323491    -0.1144274    -0.2718852
H           2.9782423     0.0397221     0.7524718
H           3.5026307     0.8725045    -0.7135065
O           2.1849569    -0.5367321    -2.3409857
C           0.9981867    -1.8342627     0.7543174
H           1.7845201    -1.7149439     1.5039803
H           0.5215394    -2.8014556     0.9346069
H           0.2475169    -1.0444366     0.9005096
C           7.0295605    -2.3718488    -0.2240362
H           7.9598489    -2.9335494    -0.2147075
C           6.3794335    -2.0697330     0.9723257
H           6.8004930    -2.3949120     1.9202169
C           5.1843511    -1.3469974     0.9563094
H           4.6861651    -1.1098003     1.8941193
C           4.6255026    -0.9155219    -0.2516057
C           5.2852640    -1.2238771    -1.4497239
H           4.8502539    -0.9009650    -2.3915740
C           6.4773401    -1.9463204    -1.4349510
H           6.9771820    -2.1775711    -2.3720172
22
176_C9H11NO_7-0-2-3 (60,) energy =    -479.5619259
N           1.5770742    -2.0760322    -0.3961080
H           1.0835206    -2.6558208    -1.0727128
C           2.3081319    -1.1318684    -1.1140541
C           3.3139733    -0.2909334    -0.3254923
H           2.9823983    -0.1129384     0.7017288
H           3.3800574     0.6804160    -0.8271497
O           2.3008460    -1.1242967    -2.3364500
C           0.6965405    -1.7071848     0.7165661
H           0.3086592    -2.6207955     1.1756747
H          -0.1530465    -1.0846930     0.4019264
H           1.2563786    -1.1662728     1.4836087
C           7.2066138    -2.1910579    -0.2720916
H           8.1858368    -2.6622861    -0.2591695
C           6.5154382    -1.9760921     0.9202449
H           6.9523614    -2.2801509     1.8679565
C           5.2579855    -1.3691318     0.9002810
H           4.7249159    -1.2033696     1.8339131
C           4.6775739    -0.9666118    -0.3073932
C           5.3771365    -1.1891816    -1.5016196
H           4.9219789    -0.8968951    -2.4432998
C           6.6319184    -1.7966496    -1.4828883
H           7.1626531    -1.9623590    -2.4168644
22
176_C9H11NO_7-0-2-3 (75,) energy =    -479.5576907
N           1.6490813    -2.1103831    -0.2263941
H           1.2508912    -2.7821528    -0.8833411
C           2.3175981    -1.1573799    -1.0152506
C           3.3353444    -0.2849730    -0.2800798
H           3.0279651    -0.1009237     0.7542051
H           3.3825394     0.6791392    -0.7973537
O           2.2659024    -1.1874161    -2.2337297
C           0.5894459    -1.6567698     0.6881121
H           0.2391268    -2.5089643     1.2772340
H          -0.2674235    -1.2137313     0.1614526
H           0.9872673    -0.9128685     1.3847068
C           7.2265565    -2.1852522    -0.3223298
H           8.2053847    -2.6573185    -0.3341034
C           6.5380476    -2.0268306     0.8805954
H           6.9769684    -2.3766168     1.8114270
C           5.2813606    -1.4184351     0.8929821
H           4.7487420    -1.2987865     1.8336100
C           4.7000612    -0.9573672    -0.2929620
C           5.3956480    -1.1248023    -1.4982201
H           4.9388477    -0.7884773    -2.4245228
C           6.6498964    -1.7336485    -1.5119461
H           7.1782576    -1.8555480    -2.4539487
22
176_C9H11NO_7-0-2-3 (90,) energy =    -479.5523399
N           1.7476153    -2.1013920    -0.0841124
H           1.4656941    -2.8575638    -0.7111617
C           2.3326832    -1.1278519    -0.9399932
C           3.3745645    -0.2342416    -0.2722943
H           3.0888154    -0.0129418     0.7613629
H           3.4237978     0.7074896    -0.8284432
O           2.1911138    -1.1609396    -2.1484938
C           0.5301110    -1.6665904     0.6290304
H           0.1730531    -2.4905128     1.2531173
H          -0.2768212    -1.3573411    -0.0503104
H           0.7656865    -0.8258415     1.2901360
C           7.2218864    -2.2175888    -0.3443818
H           8.1896371    -2.7116584    -0.3632560
C           6.5399968    -2.0602777     0.8627543
H           6.9720972    -2.4323223     1.7881264
C           5.2977277    -1.4239042     0.8866838
H           4.7681980    -1.3069773     1.8290635
C           4.7259574    -0.9326292    -0.2917168
C           5.4137949    -1.1006754    -1.5011495
H           4.9645518    -0.7399746    -2.4224543
C           6.6539783    -1.7375236    -1.5269644
H           7.1775175    -1.8587975    -2.4717194
22
176_C9H11NO_7-0-2-3 (105,) energy =    -479.5534578
N           1.8771170    -1.9548597    -0.5520793
H           2.7271523    -2.3614093    -0.1664402
C           2.1453387    -0.6746893    -1.0657517
C           3.4209190     0.0276049    -0.5614136
H           3.1458768     0.4288597     0.4239790
H           3.5954696     0.8834515    -1.2200286
O           1.3221508    -0.0619574    -1.7185218
C           0.8050856    -2.0404602     0.4498132
H           1.0528816    -1.5189128     1.3872082
H           0.6064959    -3.0921186     0.6746864
H          -0.1034178    -1.5996891     0.0337502
C           6.9344240    -2.4821931    -0.2406705
H           7.8142149    -3.1152851    -0.1650562
C           6.2216440    -2.1309981     0.9055302
H           6.5450532    -2.4865673     1.8802699
C           5.0929447    -1.3138695     0.8046660
H           4.5502092    -1.0326636     1.7050990
C           4.6588127    -0.8354628    -0.4391921
C           5.3856085    -1.1970069    -1.5840583
H           5.0628262    -0.8335247    -2.5570737
C           6.5127807    -2.0113312    -1.4869555
H           7.0640282    -2.2780231    -2.3847318
22
176_C9H11NO_7-0-2-3 (120,) energy =    -479.5602930
N           1.9414419    -1.9106773    -0.4613276
H           2.7769861    -2.2976522    -0.0316631
C           2.1589637    -0.6266140    -0.9507899
C           3.4752296     0.0591116    -0.5352274
H           3.2526079     0.5170442     0.4380858
H           3.6405523     0.8784365    -1.2412858
O           1.2897912     0.0074819    -1.5241255
C           0.7584712    -2.1398962     0.3725274
H           0.8624689    -1.6969840     1.3739348
H           0.5850382    -3.2147200     0.4772033
H          -0.1068787    -1.6937267    -0.1206835
C           6.9471881    -2.5102134    -0.2381045
H           7.8166931    -3.1579534    -0.1676018
C           6.2869634    -2.0936955     0.9175950
H           6.6409601    -2.4122422     1.8945290
C           5.1715967    -1.2576166     0.8229300
H           4.6703915    -0.9250515     1.7299341
C           4.6982754    -0.8253451    -0.4237330
C           5.3726621    -1.2526663    -1.5780609
H           5.0195750    -0.9264429    -2.5537483
C           6.4864411    -2.0857343    -1.4873049
H           6.9970437    -2.4034037    -2.3925175
22
176_C9H11NO_7-0-2-3 (135,) energy =    -479.5664572
N           1.9814470    -1.8594679    -0.3644288
H           2.8058487    -2.2481661     0.0804601
C           2.1530110    -0.5691428    -0.8238448
C           3.5054138     0.0974198    -0.5038916
H           3.3420124     0.6166576     0.4497659
H           3.6561071     0.8733044    -1.2607391
O           1.2491049     0.0802318    -1.3267008
C           0.7288863    -2.2322614     0.2875668
H           0.6996768    -1.9053734     1.3366708
H           0.5951989    -3.3174324     0.2503499
H          -0.0919598    -1.7570301    -0.2514957
C           6.9321318    -2.5340498    -0.2279091
H           7.7906491    -3.1968024    -0.1621087
C           6.3262190    -2.0531152     0.9325637
H           6.7121892    -2.3363678     1.9082729
C           5.2252076    -1.1974907     0.8438330
H           4.7663062    -0.8146106     1.7533477
C           4.7119380    -0.8096819    -0.4017861
C           5.3317211    -1.3022587    -1.5607678
H           4.9466029    -1.0112650    -2.5354522
C           6.4311861    -2.1547734    -1.4761954
H           6.8993636    -2.5227001    -2.3853421
22
176_C9H11NO_7-0-2-3 (150,) energy =    -479.5710239
N           2.0082822    -1.7323390    -0.2834255
H           2.8317509    -2.1451298     0.1366993
C           2.1533197    -0.4410824    -0.7232130
C           3.5462772     0.1910982    -0.5297227
H           3.4598099     0.7979509     0.3808987
H           3.6786193     0.8946995    -1.3575192
O           1.2255145     0.2284251    -1.1557232
C           0.7218820    -2.2172317     0.1958545
H           0.6088471    -2.0659145     1.2781123
H           0.6074850    -3.2829341    -0.0261328
H          -0.0591599    -1.6588026    -0.3217225
C           6.8896893    -2.5428836    -0.2242789
H           7.7266894    -3.2318672    -0.1509388
C           6.3260973    -1.9967519     0.9288478
H           6.7240448    -2.2553148     1.9066112
C           5.2531464    -1.1074434     0.8294801
H           4.8278667    -0.6744404     1.7327924
C           4.7250385    -0.7500136    -0.4195103
C           5.3024101    -1.3080173    -1.5705764
H           4.9061365    -1.0416812    -2.5478134
C           6.3743160    -2.1941276    -1.4754305
H           6.8099881    -2.6120681    -2.3791064
22
176_C9H11NO_7-0-2-3 (165,) energy =    -479.5736864
N           2.0207932    -1.6846023    -0.1767956
H           2.8614330    -2.1441004     0.1454137
C           2.1256679    -0.3845051    -0.5792464
C           3.5407609     0.2284025    -0.5386052
H           3.5310443     0.9269487     0.3074820
H           3.6235826     0.8442529    -1.4399137
O           1.1665671     0.3008470    -0.9104362
C           0.7399374    -2.2902409     0.1421931
H           0.5760409    -2.3416157     1.2267495
H           0.6762624    -3.3020908    -0.2721538
H          -0.0383293    -1.6690916    -0.3031965
C           6.8596714    -2.5319621    -0.2077159
H           7.6906796    -3.2273247    -0.1265727
C           6.3266230    -1.9373913     0.9365298
H           6.7428202    -2.1652533     1.9143384
C           5.2619545    -1.0398968     0.8278431
H           4.8590587    -0.5706116     1.7231386
C           4.7111065    -0.7216236    -0.4224488
C           5.2572871    -1.3282649    -1.5639180
H           4.8438224    -1.0923603    -2.5419009
C           6.3215835    -2.2232353    -1.4594351
H           6.7334360    -2.6783167    -2.3563443
22
176_C9H11NO_7-0-2-3 (180,) energy =    -479.5744701
N           2.0259727    -1.6466163    -0.2135005
H           2.8732650    -2.1932082    -0.1564384
C           2.1357867    -0.3090523    -0.4484280
C           3.5681404     0.2412265    -0.6123995
H           3.6494606     1.0624282     0.1084594
H           3.5913680     0.7083296    -1.6038245
O           1.1754555     0.4465097    -0.5347055
C           0.7453553    -2.3052967    -0.0382854
H           0.6764286    -2.7817501     0.9470707
H           0.5816803    -3.0676507    -0.8096244
H          -0.0284399    -1.5408025    -0.1215454
C           6.8355299    -2.5608340    -0.1460235
H           7.6544689    -3.2652824    -0.0285607
C           6.3600365    -1.8462553     0.9552789
H           6.8086226    -1.9916340     1.9344866
C           5.3112172    -0.9386529     0.8015436
H           4.9484860    -0.3819391     1.6628517
C           4.7191736    -0.7256031    -0.4525830
C           5.2071923    -1.4515978    -1.5499232
H           4.7641377    -1.2956519    -2.5312020
C           6.2555153    -2.3607546    -1.4001299
H           6.6225213    -2.9082217    -2.2643203
