22
284_C7H11N3O_14-0-1-2 (-165,) energy =    -512.8382633
C           2.2148494    -0.3295159    -0.9980163
N           0.8750460    -0.3194671    -0.6316725
C           0.0251975    -1.2220190    -1.4090945
H          -1.0210882    -0.9342495    -1.2672617
H           0.1527265    -2.2662580    -1.0867878
H           0.2865344    -1.1556347    -2.4641423
C           0.4762476    -0.2758187     0.7782938
H           1.0816717     0.4216451     1.3538512
H           0.5441610    -1.2735648     1.2392519
H          -0.5674307     0.0519382     0.8368689
C           3.3710947     1.3456874     0.7543126
N           2.3475289     2.1956160     1.2141170
H           1.6769315     2.4334324     0.4890986
H           2.7194248     3.0502069     1.6153766
C           3.2433385     0.2582443    -0.1204972
N           4.5233686    -0.2485622    -0.3010989
H           4.7014061    -0.9535987    -1.0022584
C           5.4196025     0.4392147     0.4459495
H           6.4681270     0.1775762     0.4565459
C           4.7398678     1.4378135     1.1229498
H           5.1727411     2.1599327     1.8030198
O           2.5843201    -0.8994580    -2.0334244
22
284_C7H11N3O_14-0-1-2 (-150,) energy =    -512.8352409
C           2.5762232    -0.5438256    -0.9645578
N           1.2323612    -0.5510937    -0.5016085
C           0.4730610    -1.7487379    -0.8482497
H           0.1440459    -1.7614973    -1.8984838
H          -0.4115487    -1.7996848    -0.2037171
H           1.0918400    -2.6311547    -0.6769041
C           0.4861374     0.6998759    -0.6298819
H           1.1228481     1.5426258    -0.3499278
H          -0.3883395     0.6838973     0.0315776
H           0.1296762     0.8627899    -1.6605013
C           3.5132716     0.7247046     1.1450573
N           2.4915083     0.6079140     2.0803692
H           1.6263935     0.2480485     1.6974934
H           2.3618480     1.4050235     2.6896462
C           3.5266239     0.1923657    -0.1552918
N           4.7947432     0.4308161    -0.6748147
H           5.0756031     0.0660535    -1.5731258
C           5.5496523     1.0953998     0.2320202
H           6.5721831     1.3743993     0.0192925
C           4.7918388     1.3014746     1.3743633
H           5.1239936     1.7865137     2.2823305
O           2.9350846    -1.2136638    -1.9346108
22
284_C7H11N3O_14-0-1-2 (-135,) energy =    -512.8327315
C           2.5045527    -0.3375902    -0.9798477
N           1.1805364    -0.4096499    -0.3715412
C           0.5528178    -1.7155204    -0.6102569
H           0.3709503    -1.9138996    -1.6763839
H          -0.4009681    -1.7479425    -0.0730345
H           1.1989338    -2.5046478    -0.2151945
C           0.3403601     0.6957444    -0.8568096
H           0.8324802     1.6500132    -0.6429065
H          -0.6203151     0.6755461    -0.3307856
H           0.1500824     0.6351284    -1.9405208
C           3.5520891     0.6479475     1.2040641
N           2.5322935     0.4994632     2.1222642
H           1.6458042     0.2518913     1.6922041
H           2.4787569     1.2003924     2.8488828
C           3.5199819     0.2310039    -0.1433494
N           4.7876264     0.4726797    -0.6701625
H           5.0234913     0.2321237    -1.6214451
C           5.5790510     1.0292475     0.2746339
H           6.6053997     1.2969012     0.0643649
C           4.8550122     1.1574309     1.4512063
H           5.2253701     1.5515322     2.3878277
O           2.7243340    -0.7486878    -2.1180889
22
284_C7H11N3O_14-0-1-2 (-120,) energy =    -512.8324113
C           2.4598461    -0.1556508    -1.0102732
N           1.1449240    -0.2649914    -0.3679444
C           0.6551674    -1.6500595    -0.4636690
H           0.5352297    -1.9823122    -1.5056830
H          -0.3109691    -1.7203138     0.0470675
H           1.3594885    -2.3198827     0.0397268
C           0.2039912     0.6638580    -1.0167976
H           0.5835594     1.6869922    -0.9284081
H          -0.7602724     0.6077730    -0.5005178
H           0.0531906     0.4368089    -2.0826257
C           3.5715096     0.5966172     1.2289134
N           2.5433391     0.4452830     2.1359628
H           1.6428216     0.3139431     1.6799262
H           2.5411843     1.0938058     2.9123547
C           3.5127494     0.2772659    -0.1451497
N           4.7892783     0.4909049    -0.6636157
H           5.0025069     0.3316085    -1.6370485
C           5.6103912     0.9409540     0.3117788
H           6.6471290     1.1747420     0.1121250
C           4.8995074     1.0211986     1.5007519
H           5.2934169     1.3313952     2.4590462
O           2.6213024    -0.3924145    -2.2062490
22
284_C7H11N3O_14-0-1-2 (-105,) energy =    -512.8337475
C           2.4224623     0.0162346    -1.0215986
N           1.1176029    -0.1301805    -0.3771515
C           0.7604962    -1.5592942    -0.3088329
H           0.6771086    -2.0140089    -1.3082064
H          -0.1982692    -1.6644700     0.2096712
H           1.5217247    -2.0994669     0.2628178
C           0.0921759     0.6135858    -1.1280608
H           0.3717839     1.6702494    -1.1762097
H          -0.8589471     0.5304349    -0.5918512
H          -0.0383001     0.2404446    -2.1532734
C           3.5661164     0.5507063     1.2637011
N           2.5221796     0.4049212     2.1574573
H           1.6185108     0.3961743     1.6877299
H           2.5644059     1.0059557     2.9709529
C           3.4973302     0.3231736    -0.1265966
N           4.7845538     0.5014651    -0.6292171
H           4.9864770     0.4238458    -1.6149988
C           5.6239118     0.8475725     0.3734414
H           6.6713709     1.0425118     0.1889442
C           4.9131925     0.8863914     1.5644511
H           5.3181079     1.1138773     2.5412399
O           2.5626376    -0.0579689    -2.2413491
22
284_C7H11N3O_14-0-1-2 (-90,) energy =    -512.8363875
C           2.3919553     0.1699279    -1.0678738
N           1.1011559    -0.0282947    -0.4420240
C           0.8526842    -1.4617790    -0.1956779
H           0.7928812    -2.0346409    -1.1345281
H          -0.0930964    -1.5746807     0.3444203
H           1.6534253    -1.8755040     0.4237887
C           0.0182042     0.5406399    -1.2583517
H           0.2215080     1.5972407    -1.4498697
H          -0.9165687     0.4581864    -0.6942211
H          -0.0988042     0.0320245    -2.2250400
C           3.5639671     0.4907662     1.2473179
N           2.5113889     0.3381634     2.1379780
H           1.6097120     0.4556093     1.6799793
H           2.6006425     0.8838186     2.9870068
C           3.4840532     0.3586840    -0.1515149
N           4.7738884     0.5215330    -0.6475055
H           4.9653741     0.5208618    -1.6385269
C           5.6308875     0.7646244     0.3716152
H           6.6842583     0.9318331     0.1945313
C           4.9240427     0.7492782     1.5651962
H           5.3384063     0.8952461     2.5536461
O           2.5253141     0.2650836    -2.2876115
22
284_C7H11N3O_14-0-1-2 (-75,) energy =    -512.8392984
C           2.3606435     0.3032851    -1.0765359
N           1.0818565     0.0274543    -0.5008034
C           0.9127903    -1.3789732    -0.0923886
H           0.8752852    -2.0513625    -0.9639237
H          -0.0247985    -1.4812029     0.4638666
H           1.7329237    -1.6847085     0.5604947
C          -0.0250304     0.4590039    -1.3622266
H           0.1218486     1.5008158    -1.6534413
H          -0.9567668     0.3726416    -0.7938490
H          -0.1074994    -0.1423830    -2.2785275
C           3.5563179     0.4396638     1.2549319
N           2.5017619     0.2901380     2.1525836
H           1.6059906     0.5165632     1.7270747
H           2.6404254     0.7851471     3.0263757
C           3.4641926     0.3784237    -0.1449279
N           4.7529176     0.5336039    -0.6415135
H           4.9320506     0.6023374    -1.6326342
C           5.6261828     0.6941038     0.3812484
H           6.6828776     0.8368288     0.2034943
C           4.9259454     0.6356819     1.5768915
H           5.3491024     0.7170638     2.5691792
O           2.5009826     0.5671991    -2.2718741
22
284_C7H11N3O_14-0-1-2 (-60,) energy =    -512.8411717
C           2.3044627     0.4175025    -1.0657524
N           1.0436956     0.0357608    -0.5602944
C           0.9302831    -1.3233777    -0.0115861
H           0.8908342    -2.0747888    -0.8159184
H           0.0083899    -1.4014461     0.5745646
H           1.7714665    -1.5474181     0.6441885
C          -0.0712990     0.3674342    -1.4486097
H           0.0297575     1.3967991    -1.7945796
H          -1.0054364     0.2603286    -0.8877210
H          -0.1102963    -0.2856070    -2.3325779
C           3.5477689     0.4070041     1.2602651
N           2.5111029     0.2577519     2.1863326
H           1.6168874     0.5668982     1.8151910
H           2.7067767     0.7078098     3.0738741
C           3.4234827     0.3988147    -0.1362581
N           4.7025020     0.5575954    -0.6535625
H           4.8550079     0.6869323    -1.6432488
C           5.6037679     0.6563724     0.3533009
H           6.6589905     0.7834924     0.1566800
C           4.9281725     0.5595525     1.5597985
H           5.3727073     0.5912701     2.5456897
O           2.4460199     0.8353746    -2.2183949
22
284_C7H11N3O_14-0-1-2 (-45,) energy =    -512.8415734
C           2.2828006     0.5045384    -1.0523080
N           1.0368530     0.0249203    -0.6475437
C           0.9211655    -1.2652426     0.0353544
H           0.8536639    -2.0876606    -0.6940290
H           0.0109139    -1.2789387     0.6455051
H           1.7731001    -1.4420734     0.6890438
C          -0.0633907     0.2967658    -1.5680210
H           0.0373804     1.3052013    -1.9687638
H          -1.0087738     0.2067524    -1.0226736
H          -0.0763493    -0.4064980    -2.4139844
C           3.5564046     0.3786888     1.2742096
N           2.5390951     0.2204630     2.2263171
H           1.6530995     0.6094203     1.9177390
H           2.7913754     0.6080981     3.1290821
C           3.4056851     0.4159291    -0.1181399
N           4.6769091     0.5830109    -0.6509560
H           4.8072131     0.7668445    -1.6353751
C           5.5996927     0.6325023     0.3401551
H           6.6526516     0.7505536     0.1269280
C           4.9443920     0.5005507     1.5536285
H           5.4055503     0.4909895     2.5324857
O           2.4408964     1.0411689    -2.1548852
22
284_C7H11N3O_14-0-1-2 (-30,) energy =    -512.8408411
C           2.1936831     0.5189649    -1.0507571
N           0.9785947    -0.0550192    -0.7218656
C           0.8429337    -1.2462598     0.1077354
H           0.6648900    -2.1301178    -0.5238248
H          -0.0117122    -1.1437464     0.7882041
H           1.7372365    -1.4167305     0.7024567
C          -0.1272023     0.1721488    -1.6424403
H          -0.0014599     1.1403597    -2.1254154
H          -1.0698562     0.1508706    -1.0839758
H          -0.1688179    -0.6005734    -2.4245931
C           3.5239460     0.3462311     1.2624059
N           2.5427958     0.1697671     2.2538426
H           1.6630714     0.6190120     2.0193222
H           2.8570847     0.5012189     3.1597833
C           3.3300272     0.4101025    -0.1235854
N           4.5846076     0.5983543    -0.6882374
H           4.6801295     0.8148695    -1.6701865
C           5.5381602     0.6282099     0.2736501
H           6.5834796     0.7551823     0.0303502
C           4.9197527     0.4656182     1.5019900
H           5.4089377     0.4368729     2.4669132
O           2.3461435     1.1290732    -2.1175948
22
284_C7H11N3O_14-0-1-2 (-15,) energy =    -512.8395355
C           2.1739020     0.5248832    -1.0480903
N           0.9909220    -0.1393767    -0.8109859
C           0.8038639    -1.2242386     0.1376902
H           0.5016927    -2.1345957    -0.3998157
H           0.0117588    -0.9882002     0.8618093
H           1.7211573    -1.4315289     0.6835176
C          -0.1167564     0.0814382    -1.7279707
H           0.0901809     0.9682762    -2.3249278
H          -1.0471700     0.2163296    -1.1619802
H          -0.2471336    -0.7765229    -2.4033378
C           3.5157490     0.3012918     1.2734147
N           2.5536240     0.0903702     2.2800717
H           1.6850745     0.5856157     2.1054640
H           2.9062965     0.3583668     3.1929464
C           3.3063063     0.4026420    -0.1087182
N           4.5541245     0.6243067    -0.6771366
H           4.6347122     0.8774437    -1.6517734
C           5.5180992     0.6327951     0.2741956
H           6.5594390     0.7770980     0.0237138
C           4.9130790     0.4274552     1.5020736
H           5.4108971     0.3760842     2.4617500
O           2.3346056     1.1969839    -2.0774378
22
284_C7H11N3O_14-0-1-2 (0,) energy =    -512.8378590
C           2.1843614     0.5750657    -1.0259534
N           1.0393064    -0.1748233    -0.8833146
C           0.7822296    -1.1543385     0.1557052
H           0.3890166    -2.0708586    -0.3038077
H           0.0303579    -0.7974680     0.8755089
H           1.6927109    -1.4014330     0.6968864
C          -0.0601765     0.0573350    -1.8079179
H           0.2336160     0.8366959    -2.5088733
H          -0.9639311     0.3655384    -1.2638574
H          -0.2922846    -0.8619902    -2.3621838
C           3.5411656     0.2776899     1.2966462
N           2.6008746     0.0096750     2.3132315
H           1.7383833     0.5327945     2.2018300
H           2.9855162     0.2129907     3.2301120
C           3.3139328     0.4379132    -0.0780506
N           4.5531514     0.7084261    -0.6454575
H           4.6176599     1.0043118    -1.6092661
C           5.5279236     0.6870145     0.2937710
H           6.5638186     0.8599334     0.0389527
C           4.9390722     0.4144953     1.5158491
H           5.4465399     0.3287852     2.4680741
O           2.3469040     1.3064695    -2.0146433
22
284_C7H11N3O_14-0-1-2 (15,) energy =    -512.8362574
C           2.4093145    -1.0461579     0.2049525
N           1.0896240    -0.8678100    -0.1632259
C           0.5982397     0.1881314    -1.0261064
H          -0.1103225     0.8525634    -0.5077920
H           0.0618771    -0.2520776    -1.8783501
H           1.4302231     0.7724310    -1.4190542
C           0.1344181    -1.9173419     0.1562973
H           0.5966633    -2.6070326     0.8607184
H          -0.1560917    -2.4746862    -0.7458585
H          -0.7709083    -1.4807903     0.5974773
C           3.4464612     1.4320350     0.1318462
N           2.4365910     2.3177331     0.5323045
H           1.4982234     1.9447758     0.4981774
H           2.4808650     3.2214769     0.0755724
C           3.3897346     0.0364160     0.0005839
N           4.6942949    -0.3913478    -0.2196358
H           4.9280126    -1.3734200    -0.2023682
C           5.5382609     0.6677284    -0.2718342
H           6.5957691     0.5383043    -0.4536801
C           4.8016653     1.8197692    -0.0664068
H           5.1873263     2.8298618    -0.0270061
O           2.8032078    -2.1326976     0.6485766
22
284_C7H11N3O_14-0-1-2 (30,) energy =    -512.8375018
C           2.3939433    -1.0574947     0.1555904
N           1.0568141    -0.7915176    -0.0973499
C           0.6030220     0.1843247    -1.0766548
H          -0.1660018     0.8488030    -0.6583381
H           0.1574528    -0.3288254    -1.9419875
H           1.4420803     0.7800865    -1.4347988
C           0.0969103    -1.8412482     0.2137036
H           0.4851580    -2.4507168     1.0287084
H          -0.0834613    -2.4955936    -0.6522477
H          -0.8555783    -1.3859624     0.5088370
C           3.4402941     1.3994941     0.1596182
N           2.4204505     2.2505998     0.6044444
H           1.5006752     1.8316649     0.6258628
H           2.3999020     3.1529450     0.1434702
C           3.3878637     0.0106328    -0.0235641
N           4.6877921    -0.4049532    -0.2839418
H           4.9262735    -1.3855123    -0.3148632
C           5.5262167     0.6603294    -0.3103277
H           6.5811269     0.5433943    -0.5145222
C           4.7895952     1.8013764    -0.0460641
H           5.1734101     2.8102481     0.0258323
O           2.7633027    -2.1801588     0.5190022
22
284_C7H11N3O_14-0-1-2 (45,) energy =    -512.8381084
C           2.4361136    -1.0541813     0.1222086
N           1.0877152    -0.7205080    -0.0314677
C           0.6536592     0.1319025    -1.1366135
H          -0.2071421     0.7433923    -0.8380186
H           0.3467305    -0.4779563    -2.0007800
H           1.4649707     0.7859362    -1.4546797
C           0.1344345    -1.7720733     0.3059911
H           0.4838452    -2.3091428     1.1875075
H           0.0141815    -2.4982331    -0.5118986
H          -0.8387609    -1.3142842     0.5140771
C           3.4625599     1.3936153     0.1861229
N           2.4206705     2.2066416     0.6418221
H           1.5170917     1.7531722     0.6678908
H           2.3717715     3.1200406     0.2069141
C           3.4330512     0.0075646    -0.0223353
N           4.7373499    -0.3837057    -0.2966653
H           4.9904842    -1.3585004    -0.3658647
C           5.5577291     0.6957722    -0.3044888
H           6.6142115     0.6004706    -0.5119278
C           4.8043671     1.8205451    -0.0139748
H           5.1743277     2.8329200     0.0776682
O           2.7856007    -2.2034880     0.4074236
22
284_C7H11N3O_14-0-1-2 (60,) energy =    -512.8377036
C           2.4602218    -1.0522529     0.0539501
N           1.1065184    -0.6495449     0.0081148
C           0.6689821     0.0686033    -1.1950457
H          -0.2616253     0.6092439    -0.9875516
H           0.4798788    -0.6259078    -2.0291943
H           1.4304663     0.7833775    -1.5096555
C           0.1621808    -1.6950552     0.4020946
H           0.5060713    -2.1695825     1.3218408
H           0.0571520    -2.4756580    -0.3656316
H          -0.8159910    -1.2339662     0.5744454
C           3.4766786     1.3798129     0.2197792
N           2.4162423     2.1579540     0.6802299
H           1.5222423     1.6840773     0.6795413
H           2.3652727     3.0937054     0.2981396
C           3.4644004    -0.0015625    -0.0266894
N           4.7737540    -0.3715182    -0.3097477
H           5.0363528    -1.3392025    -0.4261097
C           5.5808989     0.7167052    -0.2805843
H           6.6398861     0.6397937    -0.4832332
C           4.8147929     1.8255090     0.0409757
H           5.1753408     2.8378806     0.1641443
O           2.7818560    -2.2306278     0.2206996
22
284_C7H11N3O_14-0-1-2 (75,) energy =    -512.8361336
C           2.3293162    -0.9387957     0.1638230
N           0.9862849    -0.4425357     0.1594607
C           0.5522264     0.0463179    -1.1598010
H          -0.4064218     0.5666743    -1.0579494
H           0.4221016    -0.7784096    -1.8789547
H           1.2889202     0.7453119    -1.5630193
C           0.0257769    -1.4084657     0.7030247
H           0.3719847    -1.7585423     1.6772934
H          -0.1086191    -2.2846002     0.0527494
H          -0.9384629    -0.9044853     0.8264033
C           3.4002037     1.4562458     0.3292375
N           2.3342853     2.2582355     0.7134971
H           1.4351513     1.7938468     0.6728254
H           2.3287584     3.1974280     0.3384693
C           3.3692340     0.0659659     0.1239323
N           4.6803799    -0.3368670    -0.1080403
H           4.9255641    -1.3100517    -0.2150677
C           5.5057544     0.7362183    -0.0785183
H           6.5698292     0.6343251    -0.2399819
C           4.7525065     1.8695932     0.1867309
H           5.1310297     2.8771661     0.2937664
O           2.5840739    -2.1388580     0.2665757
22
284_C7H11N3O_14-0-1-2 (90,) energy =    -512.8339849
C           2.3300224    -0.9129316     0.0305648
N           0.9859400    -0.3717483     0.0953002
C           0.4911878    -0.0609002    -1.2582565
H          -0.4837213     0.4324959    -1.1818305
H           0.3780737    -0.9663088    -1.8759985
H           1.1867609     0.6187451    -1.7598187
C           0.0659132    -1.2923032     0.7782978
H           0.4531297    -1.5210579     1.7743910
H          -0.0719391    -2.2374740     0.2351135
H          -0.9037769    -0.7951173     0.8852741
C           3.4124164     1.4464629     0.3815182
N           2.3366239     2.2247749     0.7674151
H           1.4411479     1.7635674     0.6469495
H           2.3590826     3.1938463     0.4805060
C           3.3808270     0.0660879     0.1012060
N           4.6969142    -0.3296157    -0.1250843
H           4.9395268    -1.2921982    -0.3068510
C           5.5228180     0.7366396    -0.0176614
H           6.5901479     0.6393565    -0.1603541
C           4.7693181     1.8589002     0.2934979
H           5.1509382     2.8566885     0.4626742
O           2.5487099    -2.1214490    -0.0385373
22
284_C7H11N3O_14-0-1-2 (105,) energy =    -512.8325302
C           2.3311113    -0.8787911    -0.1235984
N           0.9839241    -0.3172831    -0.0112942
C           0.3973579    -0.1922401    -1.3573921
H          -0.5865585     0.2820690    -1.2763236
H           0.2817263    -1.1672067    -1.8561649
H           1.0377053     0.4433966    -1.9776909
C           0.1396273    -1.1648680     0.8450521
H           0.5882187    -1.2350493     1.8404233
H           0.0142172    -2.1807406     0.4443469
H          -0.8439578    -0.6934907     0.9422082
C           3.4242377     1.4280092     0.4362728
N           2.3403241     2.1889234     0.8224947
H           1.4513354     1.7469920     0.6040217
H           2.3935572     3.1779752     0.6194313
C           3.3895700     0.0664369     0.0660787
N           4.7103920    -0.3286265    -0.1411234
H           4.9490937    -1.2736695    -0.4024504
C           5.5399037     0.7198292     0.0614417
H           6.6105930     0.6219872    -0.0540512
C           4.7871306     1.8286286     0.4205468
H           5.1730822     2.8089635     0.6648868
O           2.5243547    -2.0693351    -0.3635663
22
284_C7H11N3O_14-0-1-2 (120,) energy =    -512.8325148
C           2.3400725    -0.8163155    -0.2950845
N           0.9900140    -0.2629493    -0.1500876
C           0.2905106    -0.3059451    -1.4435316
H          -0.6933327     0.1614055    -1.3283278
H           0.1575125    -1.3308315    -1.8208487
H           0.8598437     0.2663505    -2.1829730
C           0.2496999    -1.0011213     0.8844851
H           0.7833211    -0.9235552     1.8370521
H           0.1259058    -2.0660044     0.6348851
H          -0.7393899    -0.5469702     1.0064874
C           3.4212922     1.4262290     0.4906048
N           2.3212870     2.1729209     0.8594160
H           1.4503466     1.7640968     0.5265784
H           2.4036388     3.1724265     0.7259348
C           3.3956751     0.0920504     0.0295509
N           4.7224593    -0.3033997    -0.1350337
H           4.9663716    -1.2233732    -0.4706196
C           5.5477751     0.7210839     0.1771666
H           6.6221768     0.6207037     0.1069790
C           4.7859945     1.8116813     0.5718367
H           5.1665823     2.7696719     0.8991223
O           2.5341884    -1.9616653    -0.6992942
22
284_C7H11N3O_14-0-1-2 (135,) energy =    -512.8343971
C           2.3493369    -0.7933958    -0.4914357
N           1.0015814    -0.2870587    -0.3038323
C           0.1755375    -0.4747700    -1.5005358
H          -0.7792418     0.0397855    -1.3475640
H          -0.0223211    -1.5324297    -1.7279339
H           0.6791792    -0.0262260    -2.3612273
C           0.3834139    -0.8196049     0.9164423
H           1.0245198    -0.5998752     1.7755073
H           0.2217170    -1.9086516     0.8637138
H          -0.5836732    -0.3302233     1.0750820
C           3.3987176     1.3640729     0.5444548
N           2.2785986     2.0928870     0.9076565
H           1.4403035     1.7505781     0.4418169
H           2.3920194     3.0980299     0.8556230
C           3.3918696     0.0754366    -0.0249605
N           4.7221001    -0.3145498    -0.1569963
H           4.9774656    -1.1936846    -0.5820171
C           5.5361501     0.6747065     0.2781896
H           6.6122750     0.5741109     0.2476578
C           4.7582652     1.7326933     0.7262210
H           5.1240988     2.6587866     1.1486291
O           2.5762415    -1.8448483    -1.0894754
22
284_C7H11N3O_14-0-1-2 (150,) energy =    -512.8384374
C           2.3386037    -0.7089109    -0.6919964
N           0.9945103    -0.3665483    -0.4120108
C           0.0459684    -0.6613486    -1.4808315
H          -0.8587111    -0.0650100    -1.3179726
H          -0.2385895    -1.7237035    -1.5238099
H           0.4881899    -0.3928425    -2.4415562
C           0.4969455    -0.5985187     0.9434660
H           1.2478364    -0.2967997     1.6759341
H           0.2448485    -1.6588419     1.1072943
H          -0.4071117    -0.0029052     1.1137692
C           3.3536813     1.3296642     0.6273343
N           2.2267421     2.0600462     1.0061720
H           1.4268806     1.8589309     0.4123911
H           2.3988989     3.0574289     1.0673859
C           3.3576355     0.1042306    -0.0563143
N           4.6870419    -0.2775191    -0.1897254
H           4.9485378    -1.0874452    -0.7329170
C           5.4961776     0.6548560     0.3677657
H           6.5717281     0.5471716     0.3592273
C           4.7077627     1.6666660     0.8941982
H           5.0613159     2.5460397     1.4159002
O           2.6332024    -1.5531710    -1.5422729
22
284_C7H11N3O_14-0-1-2 (165,) energy =    -512.8412846
C           2.3258794    -0.6171323    -0.8201740
N           0.9826072    -0.3755676    -0.5004188
C           0.0165608    -0.8657122    -1.4791257
H          -0.9354768    -0.3478930    -1.3207223
H          -0.1538085    -1.9493001    -1.3931872
H           0.3827249    -0.6614831    -2.4855635
C           0.5387396    -0.5093391     0.8888781
H           1.2969075    -0.1336781     1.5749131
H           0.3235511    -1.5614043     1.1343697
H          -0.3793551     0.0692660     1.0408357
C           3.3663513     1.3119642     0.6601114
N           2.2606487     2.0797136     1.0443136
H           1.4840071     1.9895316     0.3957713
H           2.4929328     3.0570628     1.1839837
C           3.3419412     0.1216802    -0.0793086
N           4.6599848    -0.2961030    -0.2085830
H           4.9048793    -1.0722641    -0.8063566
C           5.4896538     0.5731000     0.4176838
H           6.5598702     0.4225189     0.4315972
C           4.7243262     1.5830242     0.9788188
H           5.0942704     2.4206508     1.5552433
O           2.6480803    -1.3559850    -1.7563573
22
284_C7H11N3O_14-0-1-2 (180,) energy =    -512.8411392
C           2.2773841    -0.4777946    -0.9222846
N           0.9341113    -0.3423453    -0.5728156
C           0.0006091    -1.0381860    -1.4566019
H          -1.0043712    -0.6357788    -1.2937061
H          -0.0153887    -2.1208106    -1.2621367
H           0.2953125    -0.8854870    -2.4944484
C           0.5262902    -0.4032430     0.8343185
H           1.2338241     0.1144124     1.4786736
H           0.4332768    -1.4478741     1.1703211
H          -0.4524461     0.0761759     0.9469009
C           3.3732116     1.3264887     0.6985655
N           2.3044436     2.1357966     1.1142601
H           1.5552564     2.1765392     0.4296159
H           2.6036201     3.0758429     1.3507858
C           3.2992569     0.1799166    -0.1031602
N           4.6000110    -0.2821724    -0.2528348
H           4.8132184    -1.0290156    -0.8983236
C           5.4628056     0.5043967     0.4345439
H           6.5238649     0.2996545     0.4527951
C           4.7377821     1.5132145     1.0475177
H           5.1380167     2.2985695     1.6752130
O           2.6204178    -1.1302096    -1.9152758
