23
144_C11H8N2O2_5-6-16-17 (-165,) energy =    -683.9439351
N           0.8331465     0.6104202     0.4791381
H           1.6555185     1.1830422     0.6764287
C          -0.4200735     1.1766264     0.7658891
C          -1.5348335     0.2842171     0.4752596
H          -2.5260584     0.6762513     0.6752776
C           1.0462307    -0.6490102    -0.0159737
C           2.4303780    -1.1543967    -0.2992869
C          -1.3373122    -0.9745039    -0.0180707
H          -2.1905394    -1.6165813    -0.2229763
C           5.8926691     1.3013170    -0.0861129
H           6.7541260     1.9574631    -0.0106191
C           4.6684225     1.6858186     0.4630770
H           4.5602167     2.6410392     0.9714780
C          -0.0280389    -1.4667054    -0.2726192
H           0.1500763    -2.4598022    -0.6628301
N           3.5702903     0.9276822     0.3984930
C           3.6521779    -0.2673708    -0.2129100
C           4.8373912    -0.7330223    -0.7968924
H           4.8407863    -1.7049898    -1.2756359
C           5.9736621     0.0680437    -0.7323339
H           6.9069714    -0.2638195    -1.1782978
O           2.5812408    -2.3152296    -0.6620571
O          -0.5032816     2.3157010     1.2161172
23
144_C11H8N2O2_5-6-16-17 (-150,) energy =    -683.9424730
N           0.8496966     0.5907068     0.5285885
H           1.6679631     1.1421495     0.7905437
C          -0.4059494     1.1953123     0.7095306
C          -1.5191005     0.3254736     0.3513042
H          -2.5114274     0.7477978     0.4657854
C           1.0632590    -0.6845574     0.0760480
C           2.4532104    -1.2179285    -0.1026599
C          -1.3199867    -0.9492472    -0.0982896
H          -2.1730116    -1.5728591    -0.3545880
C           5.8513561     1.3277718    -0.1353692
H           6.6975823     2.0074362    -0.1189547
C           4.6956473     1.6300020     0.5866667
H           4.6269119     2.5438542     1.1721950
C          -0.0091639    -1.4817915    -0.2416981
H           0.1709845    -2.4877786    -0.5966747
N           3.6155115     0.8427530     0.5986333
C           3.6583613    -0.3069263    -0.0977129
C           4.7692513    -0.6875166    -0.8606421
H           4.7422235    -1.6251831    -1.4033985
C           5.8820279     0.1487855    -0.8797924
H           6.7583514    -0.1143886    -1.4653426
O           2.6183946    -2.4044880    -0.3573232
O          -0.4916153     2.3444384     1.1321474
23
144_C11H8N2O2_5-6-16-17 (-135,) energy =    -683.9398186
N           0.8828635     0.5747003     0.5500565
H           1.6903638     1.1101906     0.8690640
C          -0.3665570     1.2148009     0.6294610
C          -1.4752336     0.3596457     0.2242015
H          -2.4614317     0.8095641     0.2573112
C           1.0905432    -0.7212528     0.1566536
C           2.4792551    -1.2783644     0.0799785
C          -1.2809420    -0.9350209    -0.1663126
H          -2.1315924    -1.5463672    -0.4575850
C           5.8046927     1.3427820    -0.1732633
H           6.6324823     2.0440107    -0.2096838
C           4.7435427     1.5565505     0.7080005
H           4.7308852     2.4234446     1.3646251
C           0.0222522    -1.5046989    -0.2023115
H           0.1995371    -2.5265560    -0.5107541
N           3.6857860     0.7421517     0.7910125
C           3.6719946    -0.3547524     0.0135587
C           4.6781214    -0.6416408    -0.9159670
H           4.6041210    -1.5361551    -1.5240828
C           5.7622505     0.2275469    -1.0095776
H           6.5595523     0.0386053    -1.7228210
O           2.6513673    -2.4797695    -0.0756360
O          -0.4501194     2.3777000     1.0117148
23
144_C11H8N2O2_5-6-16-17 (-120,) energy =    -683.9360122
N           0.9203629     0.5623883     0.5541864
H           1.7140497     1.0936167     0.9089275
C          -0.3164001     1.2331077     0.5390525
C          -1.4202260     0.3857789     0.1046763
H          -2.3951155     0.8588145     0.0618609
C           1.1163819    -0.7542174     0.2277222
C           2.4989513    -1.3289762     0.2467311
C          -1.2367520    -0.9286500    -0.2189412
H          -2.0848265    -1.5322792    -0.5328516
C           5.7485669     1.3582889    -0.1924029
H           6.5565548     2.0789287    -0.2704477
C           4.8055190     1.4707739     0.8302595
H           4.8646888     2.2791270     1.5556119
C           0.0520817    -1.5294287    -0.1557957
H           0.2213492    -2.5674878    -0.4104610
N           3.7740021     0.6296694     0.9729455
C           3.6827831    -0.3994695     0.1132088
C           4.5574818    -0.5776426    -0.9634876
H           4.4188375    -1.4146790    -1.6392971
C           5.6106901     0.3217417    -1.1150960
H           6.3098738     0.2165842    -1.9398652
O           2.6701270    -2.5378335     0.1973574
O          -0.3926327     2.4111938     0.8716881
23
144_C11H8N2O2_5-6-16-17 (-105,) energy =    -683.9316352
N           0.9548924     0.5628247     0.4941851
H           1.7392848     1.1115179     0.8375628
C          -0.2694912     1.2514871     0.3960478
C          -1.3764734     0.3916739    -0.0042505
H          -2.3406656     0.8763502    -0.1107022
C           1.1332260    -0.7792934     0.2775287
C           2.5086591    -1.3602106     0.3779023
C          -1.2096676    -0.9467626    -0.2199074
H          -2.0606573    -1.5580047    -0.5101531
C           5.7159039     1.3616556    -0.1616882
H           6.5167835     2.0885631    -0.2538795
C           4.9091057     1.3454655     0.9764513
H           5.0671267     2.0621074     1.7794720
C           0.0655846    -1.5632455    -0.0738105
H           0.2218263    -2.6209020    -0.2423127
N           3.8934908     0.4884199     1.1476075
C           3.6874629    -0.4284268     0.1881985
C           4.4114547    -0.4681091    -1.0070115
H           4.1776066    -1.2102262    -1.7635790
C           5.4500773     0.4450799    -1.1786671
H           6.0385045     0.4435111    -2.0919052
O           2.6765201    -2.5661799     0.4510647
O          -0.3311968     2.4516923     0.6384943
23
144_C11H8N2O2_5-6-16-17 (-90,) energy =    -683.9284648
N           0.9583781     0.5711685     0.1184400
H           1.7624541     1.1855872     0.1919270
C          -0.2753906     1.2388491    -0.0169764
C          -1.4121362     0.3284428    -0.0629279
H          -2.3871031     0.7900721    -0.1731650
C           1.1269740    -0.7865667     0.2176959
C           2.5100455    -1.3412542     0.3390469
C          -1.2568359    -1.0253921     0.0339969
H          -2.1291316    -1.6732831    -0.0002732
C           5.8173878     1.2986209     0.0043460
H           6.6662960     1.9750412    -0.0137291
C           5.1639532     1.0218577     1.2061924
H           5.4936772     1.4824336     2.1353248
C           0.0328089    -1.6102956     0.1788911
H           0.1812684    -2.6797835     0.2552824
N           4.1085763     0.2029066     1.3033960
C           3.6840673    -0.3892629     0.1776567
C           4.2511885    -0.1616513    -1.0798796
H           3.8538056    -0.6552385    -1.9617871
C           5.3457847     0.6981089    -1.1623361
H           5.8188529     0.8965739    -2.1199576
O           2.6984129    -2.5317264     0.5148527
O          -0.3155878     2.4620607    -0.0837116
23
144_C11H8N2O2_5-6-16-17 (-75,) energy =    -683.9282468
N           0.9372208     0.5648660    -0.0658793
H           1.7391928     1.1847330    -0.1134229
C          -0.3031002     1.2033491    -0.2692711
C          -1.4338724     0.2907051    -0.1680568
H          -2.4140848     0.7301757    -0.3157540
C           1.1189231    -0.7686925     0.2029275
C           2.5067618    -1.2940003     0.3940685
C          -1.2664931    -1.0386536     0.0994229
H          -2.1349941    -1.6887834     0.1688617
C           5.8966291     1.2349125     0.0383048
H           6.7852139     1.8582045     0.0153050
C           5.3928080     0.7708569     1.2561416
H           5.8828921     1.0327053     2.1919538
C           0.0296651    -1.5951853     0.2895742
H           0.1869896    -2.6449667     0.5014420
N           4.3096070    -0.0056362     1.3631171
C           3.6778210    -0.3397480     0.2280343
C           4.0918497     0.0804156    -1.0405633
H           3.5439522    -0.2197223    -1.9294558
C           5.2314175     0.8803941    -1.1331515
H           5.5894475     1.2186037    -2.1014058
O           2.7014574    -2.4588816     0.6896940
O          -0.3508620     2.4054881    -0.5040432
23
144_C11H8N2O2_5-6-16-17 (-60,) energy =    -683.9290103
N           0.9177507     0.5792152    -0.0565426
H           1.7025307     1.2221384    -0.0627647
C          -0.3243232     1.1784850    -0.3522384
C          -1.4351993     0.2383993    -0.3013624
H          -2.4152258     0.6461534    -0.5228229
C           1.1174112    -0.7421227     0.2586652
C           2.5011569    -1.2314293     0.5621743
C          -1.2502680    -1.0784827     0.0121097
H          -2.1038485    -1.7509892     0.0432310
C           5.9416548     1.1864964    -0.0046866
H           6.8525345     1.7714496    -0.0869921
C           5.5682626     0.6319188     1.2237898
H           6.1839793     0.7870963     2.1078834
C           0.0448991    -1.5937527     0.3002202
H           0.2140247    -2.6326700     0.5523319
N           4.4719452    -0.1092890     1.4004986
C           3.6800911    -0.3050031     0.3341103
C           3.9580605     0.2136279    -0.9363961
H           3.2913584     0.0202406    -1.7720784
C           5.1202342     0.9678165    -1.1070806
H           5.3744643     1.3740282    -2.0819336
O           2.6800420    -2.3546113     0.9969311
O          -0.3869948     2.3738573    -0.6166022
23
144_C11H8N2O2_5-6-16-17 (-45,) energy =    -683.9293941
N           0.8900399     0.6196334    -0.0019938
H           1.6449058     1.2939339     0.0635228
C          -0.3478271     1.1768420    -0.3876547
C          -1.4233269     0.1970941    -0.4308160
H          -2.3970308     0.5697147    -0.7287706
C           1.1139422    -0.6955546     0.3240441
C           2.4856052    -1.1450086     0.7386759
C          -1.2148191    -1.1136294    -0.1068262
H          -2.0426731    -1.8171847    -0.1459487
C           5.9796862     1.1215048    -0.0804523
H           6.9075619     1.6651586    -0.2295849
C           5.7113094     0.5051095     1.1471254
H           6.4279874     0.5715620     1.9638332
C           0.0711756    -1.5831422     0.2835696
H           0.2548739    -2.6160364     0.5495346
N           4.6014806    -0.1890794     1.4011039
C           3.6853328    -0.2768595     0.4220410
C           3.8537064     0.3120845    -0.8381773
H           3.0965377     0.2036366    -1.6088100
C           5.0319473     1.0161885    -1.0936556
H           5.2004920     1.4711383    -2.0655109
O           2.6308242    -2.2090835     1.3128027
O          -0.4325059     2.3723449    -0.6455316
23
144_C11H8N2O2_5-6-16-17 (-30,) energy =    -683.9287853
N           0.8449190     0.6646120     0.0478478
H           1.5582304     1.3739879     0.1764720
C          -0.3880578     1.1704583    -0.4194303
C          -1.4115580     0.1442077    -0.5451426
H          -2.3770442     0.4747444    -0.9115152
C           1.1048100    -0.6414951     0.3841064
C           2.4621041    -1.0375012     0.8983887
C          -1.1675728    -1.1576799    -0.2107218
H          -1.9578513    -1.8973913    -0.3117250
C           6.0134934     1.0458232    -0.1494516
H           6.9562800     1.5437859    -0.3544545
C           5.8192136     0.3697538     1.0613879
H           6.6107333     0.3426824     1.8084324
C           0.1064258    -1.5723363     0.2714906
H           0.3127132    -2.5973505     0.5508465
N           4.6945424    -0.2683041     1.3809389
C           3.6881371    -0.2489878     0.4893040
C           3.7808576     0.4068750    -0.7462011
H           2.9587970     0.3836221    -1.4538671
C           4.9727973     1.0573239    -1.0719411
H           5.0793036     1.5608405    -2.0284998
O           2.5684277    -2.0231236     1.6054551
O          -0.5069881     2.3640476    -0.6729416
23
144_C11H8N2O2_5-6-16-17 (-15,) energy =    -683.9272199
N           0.7807991     0.7022066     0.1022476
H           1.4425506     1.4493263     0.2822339
C          -0.4483367     1.1462544    -0.4361702
C          -1.4048768     0.0684667    -0.6302435
H          -2.3617726     0.3492896    -1.0557518
C           1.0888795    -0.5903702     0.4493380
C           2.4327823    -0.9207157     1.0460623
C          -1.1128266    -1.2203832    -0.2842004
H          -1.8545443    -2.0005664    -0.4362779
C           6.0442034     0.9453585    -0.2047089
H           7.0021957     1.3893524    -0.4577446
C           5.8960090     0.2045257     0.9748518
H           6.7409278     0.0701419     1.6483602
C           0.1484066    -1.5705512     0.2772981
H           0.3866135    -2.5851409     0.5690680
N           4.7543779    -0.3666344     1.3510022
C           3.6835620    -0.2252516     0.5491231
C           3.7298319     0.5014746    -0.6493314
H           2.8612666     0.5766966    -1.2938124
C           4.9369539     1.0896432    -1.0329561
H           5.0030084     1.6475624    -1.9625973
O           2.5021123    -1.8084115     1.8761317
O          -0.6139133     2.3346694    -0.6878319
23
144_C11H8N2O2_5-6-16-17 (0,) energy =    -683.9250564
N           0.7124848     0.7579972     0.1246504
H           1.3112087     1.5452799     0.3485985
C          -0.5130555     1.1306123    -0.4764728
C          -1.3926383    -0.0005917    -0.7183916
H          -2.3404755     0.2230778    -1.1949041
C           1.0750875    -0.5135816     0.4943220
C           2.4063865    -0.7671409     1.1593492
C          -1.0450728    -1.2693019    -0.3501710
H          -1.7318482    -2.0911018    -0.5372729
C           6.0768838     0.8492176    -0.2633397
H           7.0505080     1.2296105    -0.5571049
C           5.9456080     0.0368925     0.8705085
H           6.8205647    -0.2212562     1.4650771
C           0.2021901    -1.5460630     0.2805264
H           0.4786466    -2.5458699     0.5893378
N           4.7859382    -0.4570047     1.2954526
C           3.6779774    -0.1720354     0.5872188
C           3.7074605     0.6300865    -0.5627673
H           2.8103349     0.8208499    -1.1396957
C           4.9317872     1.1458959    -0.9932337
H           4.9813727     1.7649599    -1.8844155
O           2.4436548    -1.5374518     2.1005026
O          -0.7330215     2.3085258    -0.7354549
23
144_C11H8N2O2_5-6-16-17 (15,) energy =    -683.9272195
N           0.8717368     0.4524003     0.7262490
H           1.5397477     1.1783085     0.9614708
C          -0.1443509     0.2776263     1.6931827
C          -1.1278300    -0.7217759     1.3082139
H          -1.9232875    -0.9094387     2.0206868
C           0.9583431    -0.2000646    -0.4792110
C           2.0816222     0.1085257    -1.4355234
C          -1.0553801    -1.3746308     0.1104378
H          -1.8127551    -2.1102546    -0.1487579
C           6.0530727     0.9338157    -0.1564470
H           7.0825730     1.1708471     0.0942563
C           5.5544944     1.2057412    -1.4369676
H           6.1963703     1.6595377    -2.1903737
C          -0.0058381    -1.1120829    -0.8159818
H           0.0542425    -1.6116775    -1.7741219
N           4.3055350     0.9449751    -1.8153340
C           3.4772161     0.3854731    -0.9149983
C           3.8799822     0.0810816     0.3932930
H           3.2025656    -0.3957539     1.0925605
C           5.1958519     0.3552533     0.7725467
H           5.5371823     0.1176816     1.7760109
O           1.8628648     0.0551980    -2.6319043
O          -0.1281905     0.9381460     2.7258740
23
144_C11H8N2O2_5-6-16-17 (30,) energy =    -683.9287853
N           0.9372527     0.3951163     0.7049017
H           1.6652062     1.0619554     0.9372428
C          -0.0929930     0.3134393     1.6673903
C          -1.1523587    -0.6087247     1.2880415
H          -1.9654044    -0.7199542     1.9967251
C           0.9802262    -0.2822808    -0.4891725
C           2.1301180    -0.0772769    -1.4374773
C          -1.1238918    -1.2859309     0.1019305
H          -1.9357535    -1.9629589    -0.1518966
C           6.0153831     1.0386972    -0.1298863
H           7.0239544     1.3460764     0.1292297
C           5.4725557     1.3723444    -1.3768708
H           6.0564031     1.9468810    -2.0940474
C          -0.0486521    -1.1246129    -0.8175139
H          -0.0163627    -1.6453053    -1.7657150
N           4.2472025     1.0259820    -1.7675816
C           3.4894913     0.3248888    -0.9058536
C           3.9381016    -0.0502405     0.3682161
H           3.3104166    -0.6365937     1.0310252
C           5.2311392     0.3073156     0.7556708
H           5.6115930     0.0172321     1.7308553
O           1.9676251    -0.2839551    -2.6264181
O          -0.0305436     0.9812829     2.6936220
23
144_C11H8N2O2_5-6-16-17 (45,) energy =    -683.9293941
N           0.9884095     0.3315658     0.7026830
H           1.7694059     0.9320036     0.9441826
C          -0.0602905     0.3431246     1.6469018
C          -1.1856601    -0.4934140     1.2566717
H          -2.0184458    -0.5272568     1.9502375
C           0.9978725    -0.3645089    -0.4811623
C           2.1798350    -0.2666982    -1.4023684
C          -1.1904990    -1.1888795     0.0807671
H          -2.0499303    -1.8011552    -0.1807132
C           5.9751186     1.1277849    -0.1116232
H           6.9611217     1.5037179     0.1437429
C           5.3631673     1.5093685    -1.3110766
H           5.8679061     2.1905864    -1.9938893
C          -0.0872538    -1.1303170    -0.8170175
H          -0.0747774    -1.6690291    -1.7556285
N           4.1615157     1.0807739    -1.6990713
C           3.5003224     0.2524768    -0.8731599
C           4.0210211    -0.1808913     0.3534345
H           3.4612325    -0.8645276     0.9845192
C           5.2899869     0.2601297     0.7333061
H           5.7289609    -0.0698399     1.6705000
O           2.0781908    -0.6179739    -2.5638996
O           0.0374235     1.0127846     2.6691203
23
144_C11H8N2O2_5-6-16-17 (60,) energy =    -683.9290103
N           1.0241148     0.2689174     0.6997037
H           1.8467390     0.8020142     0.9611646
C          -0.0466551     0.3719274     1.6119203
C          -1.2240955    -0.3750887     1.1924131
H          -2.0781446    -0.3322092     1.8591339
C           1.0124388    -0.4398640    -0.4761624
C           2.2290828    -0.4447309    -1.3514016
C          -1.2491858    -1.0833340     0.0243320
H          -2.1471884    -1.6271119    -0.2580312
C           5.9252153     1.2324696    -0.1142773
H           6.8821944     1.6838072     0.1288944
C           5.2170289     1.6476946    -1.2466157
H           5.6161894     2.4302041    -1.8893889
C          -0.1170663    -1.1262080    -0.8373120
H          -0.1155471    -1.6793497    -1.7676609
N           4.0430599     1.1315095    -1.6179373
C           3.5132752     0.1767076    -0.8367825
C           4.1357717    -0.3026646     0.3221536
H           3.6720779    -1.0840753     0.9176707
C           5.3731997     0.2334459     0.6826253
H           5.8912021    -0.1244426     1.5678192
O           2.1882182    -0.9310241    -2.4669266
O           0.0729115     1.0390788     2.6333656
23
144_C11H8N2O2_5-6-16-17 (75,) energy =    -683.9282467
N           1.0439739     0.2536206     0.6918798
H           1.8909441     0.7429880     0.9617174
C          -0.0433566     0.4487175     1.5677074
C          -1.2495625    -0.2452429     1.1372525
H          -2.1183713    -0.1285891     1.7754722
C           1.0247517    -0.4974394    -0.4566844
C           2.2685985    -0.6055928    -1.2811608
C          -1.2819582    -0.9956021    -0.0040958
H          -2.2014061    -1.4979752    -0.2939648
C           5.8761061     1.2924842    -0.0995391
H           6.8010714     1.8102766     0.1348330
C           5.0534004     1.7520715    -1.1311613
H           5.3291965     2.6342122    -1.7058425
C          -0.1294365    -1.1357451    -0.8274752
H          -0.1308467    -1.7254109    -1.7352020
N           3.9053456     1.1635509    -1.4823311
C           3.5330319     0.0780648    -0.7878598
C           4.2768696    -0.4568170     0.2694518
H           3.9301458    -1.3397190     0.7992313
C           5.4782570     0.1639511     0.6136514
H           6.0882773    -0.2276418     1.4227390
O           2.2721025    -1.2165040    -2.3342648
O           0.0843366     1.1422930     2.5703004
23
144_C11H8N2O2_5-6-16-17 (90,) energy =    -683.9284648
N           1.0209210     0.3880640     0.5651032
H           1.8404452     0.9576641     0.7478177
C          -0.0734175     0.6515971     1.4132147
C          -1.2499153    -0.1435449     1.0865011
H          -2.1203981     0.0152232     1.7132921
C           1.0271608    -0.4990477    -0.4811825
C           2.2801749    -0.6767538    -1.2772144
C          -1.2555792    -1.0307765     0.0476708
H          -2.1536529    -1.6039287    -0.1686543
C           5.8139209     1.3068214    -0.0132897
H           6.7046326     1.8620100     0.2640424
C           4.8687510     1.8751102    -0.8686876
H           5.0106923     2.8793733    -1.2629513
C          -0.1014113    -1.2230092    -0.7630287
H          -0.0809415    -1.9214893    -1.5897011
N           3.7457144     1.2522956    -1.2492661
C           3.5462006     0.0086129    -0.7892501
C           4.4164529    -0.6418070     0.0907737
H           4.1946130    -1.6437130     0.4461219
C           5.5778546     0.0242624     0.4801577
H           6.2828280    -0.4489973     1.1578446
O           2.3036547    -1.3893024    -2.2648052
O           0.0234681     1.4774398     2.3137217
23
144_C11H8N2O2_5-6-16-17 (105,) energy =    -683.9316352
N           0.9269326     0.6415968     0.3037956
H           1.6565456     1.3487283     0.2616953
C          -0.1652043     0.9465539     1.1387523
C          -1.2233811    -0.0544133     1.0816826
H          -2.0821025     0.1243433     1.7192996
C           1.0197242    -0.4518333    -0.5183128
C           2.2678078    -0.6633960    -1.3164851
C          -1.1416703    -1.1454770     0.2639910
H          -1.9543908    -1.8673226     0.2425769
C           5.7619813     1.2272319     0.1678105
H           6.6288921     1.7625936     0.5422003
C           4.7095631     1.9229770    -0.4280260
H           4.7410492     3.0065781    -0.5187509
C          -0.0046844    -1.3608300    -0.5657954
H           0.0830820    -2.2193559    -1.2190092
N           3.6033809     1.3281106    -0.8946986
C           3.5430970    -0.0116355    -0.8239834
C           4.5239053    -0.7950937    -0.2087326
H           4.4060116    -1.8723968    -0.1504979
C           5.6577824    -0.1579356     0.2918236
H           6.4438059    -0.7325006     0.7737733
O           2.2936355    -1.4594769    -2.2402722
O          -0.1652047     1.9674891     1.8175533
23
144_C11H8N2O2_5-6-16-17 (120,) energy =    -683.9360120
N           0.8654344     0.6930765     0.2653154
H           1.5976823     1.3983923     0.1984251
C          -0.2605241     1.0412470     1.0338977
C          -1.3036384     0.0230882     1.0125037
H          -2.1884613     0.2352755     1.6024834
C           1.0046931    -0.4564227    -0.4680272
C           2.2786950    -0.7179782    -1.2102034
C          -1.1766195    -1.1246323     0.2826508
H          -1.9782837    -1.8591278     0.2846697
C           5.7870073     1.2249924     0.1650636
H           6.6570726     1.7670883     0.5219768
C           4.6411974     1.9184146    -0.2274326
H           4.6034682     3.0042843    -0.1772545
C          -0.0061680    -1.3830061    -0.4850524
H           0.1170131    -2.2859858    -1.0685722
N           3.5281997     1.3122901    -0.6582709
C           3.5457309    -0.0277165    -0.7617620
C           4.6319431    -0.8123712    -0.3610771
H           4.5784387    -1.8925134    -0.4448611
C           5.7737838    -0.1684580     0.1107194
H           6.6371061    -0.7442449     0.4320895
O           2.3369067    -1.6014059    -2.0523605
O          -0.3004420     2.1090254     1.6360469
23
144_C11H8N2O2_5-6-16-17 (135,) energy =    -683.9398189
N           0.8452564     0.6820277     0.2893936
H           1.6021813     1.3647263     0.2493765
C          -0.3180545     1.0731185     0.9755621
C          -1.3757947     0.0713059     0.9274292
H          -2.2922567     0.3195791     1.4514284
C           1.0127599    -0.4980835    -0.3863161
C           2.3182609    -0.8132322    -1.0505316
C          -1.2215179    -1.1073384     0.2540575
H          -2.0334182    -1.8302755     0.2347817
C           5.8481340     1.2142973     0.1425811
H           6.7253344     1.7720568     0.4551956
C           4.6334736     1.8722709    -0.0574057
H           4.5494294     2.9454534     0.0976318
C          -0.0099399    -1.4126196    -0.4264531
H           0.1348026    -2.3405060    -0.9638785
N           3.5121146     1.2428490    -0.4254328
C           3.5769458    -0.0810989    -0.6508797
C           4.7427612    -0.8302719    -0.4555767
H           4.7288841    -1.8981999    -0.6420755
C           5.8974087    -0.1662559    -0.0488246
H           6.8194558    -0.7162914     0.1165871
O           2.4039136    -1.7630806    -1.8171004
O          -0.3763322     2.1624758     1.5371058
23
144_C11H8N2O2_5-6-16-17 (150,) energy =    -683.9424731
N           0.8200123     0.6748798     0.3247030
H           1.6022344     1.3308880     0.3320261
C          -0.3771395     1.1096880     0.9185844
C          -1.4524324     0.1301695     0.8272486
H          -2.3971826     0.4143599     1.2776513
C           1.0093957    -0.5301190    -0.2988388
C           2.3427653    -0.8992271    -0.8770515
C          -1.2776209    -1.0738166     0.2055157
H          -2.1017222    -1.7811418     0.1527917
C           5.8829647     1.2345416     0.0940231
H           6.7631842     1.8156081     0.3507128
C           4.6236481     1.8365367     0.0860065
H           4.5070013     2.8888318     0.3345242
C          -0.0290447    -1.4257532    -0.3772511
H           0.1311918    -2.3737984    -0.8732359
N           3.5001449     1.1751036    -0.2086662
C           3.5951617    -0.1251600    -0.5384822
C           4.8132428    -0.8159610    -0.5459330
H           4.8248346    -1.8651586    -0.8171968
C           5.9748013    -0.1211460    -0.2202926
H           6.9354305    -0.6282819    -0.2117229
O           2.4470828    -1.9090447    -1.5622183
O          -0.4481525     2.2161726     1.4449730
23
144_C11H8N2O2_5-6-16-17 (165,) energy =    -683.9439351
N           0.8185021     0.6528195     0.3759690
H           1.6221050     1.2798061     0.4409770
C          -0.4051957     1.1335068     0.8708219
C          -1.5003708     0.1843744     0.7182149
H          -2.4673236     0.5061013     1.0893202
C           1.0190200    -0.5702013    -0.2077424
C           2.3743545    -0.9921225    -0.6941552
C          -1.3152450    -1.0384342     0.1374945
H          -2.1536521    -1.7234376     0.0370429
C           5.9093791     1.2528953     0.0317265
H           6.7879985     1.8593212     0.2282221
C           4.6332297     1.7877399     0.2150724
H           4.5010334     2.8124318     0.5544211
C          -0.0378210    -1.4383772    -0.3415537
H           0.1299947    -2.4016354    -0.8043741
N           3.5133408     1.0926294    -0.0028854
C           3.6211671    -0.1775472    -0.4314834
C           4.8599492    -0.7983680    -0.6378779
H           4.8821611    -1.8248279    -0.9840207
C           6.0209019    -0.0688003    -0.3993290
H           6.9964931    -0.5231343    -0.5472678
O           2.4928401    -2.0591708    -1.2851408
O          -0.4813281     2.2520761     1.3709490
23
144_C11H8N2O2_5-6-16-17 (180,) energy =    -683.9443735
N           0.8250424     0.6302668     0.4271484
H           1.6426959     1.2286191     0.5566048
C          -0.4172577     1.1549134     0.8199840
C          -1.5263808     0.2360748     0.5989191
H          -2.5091026     0.5945508     0.8852730
C           1.0336486    -0.6118115    -0.1117580
C           2.4064416    -1.0801373    -0.4980392
C          -1.3337482    -1.0053562     0.0617218
H          -2.1823510    -1.6678934    -0.0905047
C           5.9144203     1.2762250    -0.0287686
H           6.7862394     1.9085789     0.1068488
C           4.6496372     1.7376204     0.3395519
H           4.5193930     2.7300556     0.7646760
C          -0.0356796    -1.4533285    -0.3058858
H           0.1381578    -2.4323510    -0.7318405
N           3.5388739     1.0093319     0.1984051
C           3.6430663    -0.2260507    -0.3228460
C           4.8712833    -0.7709791    -0.7200765
H           4.8914108    -1.7722080    -1.1334119
C           6.0232043    -0.0048546    -0.5692339
H           6.9899076    -0.4001626    -0.8680777
O           2.5406425    -2.2007577    -0.9762482
O          -0.4967443     2.2837426     1.2962309
