17
418_C5H6N4O2_1-0-2-3 (-165,) energy =    -563.6479518
C           3.4240681     1.5766505     1.2015443
C           3.2535552     0.3768804     0.5194617
C           2.5989137     2.6783470     1.7798230
O           3.1600358     3.7360579     2.0785961
N           1.2834788     2.4253798     1.9256020
H           0.6939203     3.1839636     2.2378213
H           0.8840652     1.5633681     1.5411754
C           2.0073884    -0.3743055     0.2345475
O           0.8855400    -0.0068398     0.6075423
N           2.2052094    -1.5090379    -0.4763252
H           1.4127790    -2.0920796    -0.6993904
H           3.1429862    -1.7776396    -0.7409497
N           4.4745059    -0.1163869     0.1093451
C           5.3654447     0.7636777     0.5177370
H           6.4343389     0.6953055     0.3690956
N           4.7772418     1.7960648     1.1751960
H           5.1775279     2.6477265     1.5532112
17
418_C5H6N4O2_1-0-2-3 (-150,) energy =    -563.6457483
C           3.4238101     1.5514565     1.2462414
C           3.2559166     0.3697353     0.5325992
C           2.5888351     2.6910679     1.7336758
O           3.1138996     3.8009079     1.8437624
N           1.2952577     2.4088056     1.9981289
H           0.6869009     3.1939809     2.1863633
H           0.9040170     1.5223630     1.6643767
C           2.0070298    -0.3756931     0.2446301
O           0.8949107    -0.0329820     0.6663169
N           2.1915189    -1.4732264    -0.5262874
H           1.3988849    -2.0598474    -0.7392410
H           3.1255788    -1.7349577    -0.8103607
N           4.4765376    -0.1203897     0.1191163
C           5.3672207     0.7505307     0.5462426
H           6.4369338     0.6813431     0.4036375
N           4.7784795     1.7714953     1.2216647
H           5.1799573     2.6344603     1.5705705
17
418_C5H6N4O2_1-0-2-3 (-135,) energy =    -563.6419919
C           3.4116092     1.5266148     1.2877156
C           3.2454713     0.3617471     0.5465303
C           2.5669376     2.6962097     1.6865922
O           3.0382479     3.8290686     1.5916673
N           1.3065611     2.4027797     2.0842541
H           0.6728603     3.1876551     2.1640383
H           0.9270177     1.4883585     1.8218283
C           1.9905476    -0.3744225     0.2615637
O           0.8948853    -0.0572410     0.7407238
N           2.1507209    -1.4287268    -0.5742295
H           1.3610531    -2.0304501    -0.7545921
H           3.0808225    -1.6952450    -0.8672654
N           4.4643591    -0.1301872     0.1328283
C           5.3567622     0.7290157     0.5783551
H           6.4273882     0.6554856     0.4444991
N           4.7695479     1.7424617     1.2675512
H           5.1809617     2.6073291     1.5977506
17
418_C5H6N4O2_1-0-2-3 (-120,) energy =    -563.6366702
C           3.4088255     1.5150133     1.3057619
C           3.2534403     0.3642589     0.5416431
C           2.5463511     2.7024959     1.6184482
O           2.9366116     3.8248807     1.3089131
N           1.3366025     2.4145042     2.1640983
H           0.6683590     3.1757467     2.1563096
H           0.9741813     1.4742945     1.9879219
C           1.9934779    -0.3634115     0.2583096
O           0.9132453    -0.0636868     0.7797740
N           2.1329528    -1.3855053    -0.6215954
H           1.3435214    -1.9908938    -0.7911731
H           3.0576489    -1.6497077    -0.9333290
N           4.4740894    -0.1280916     0.1362035
C           5.3626931     0.7216343     0.6047680
H           6.4350284     0.6440750     0.4873715
N           4.7699419     1.7277610     1.3023997
H           5.1929486     2.5848869     1.6356550
17
418_C5H6N4O2_1-0-2-3 (-105,) energy =    -563.6300974
C           3.4023929     1.5032642     1.2978661
C           3.2635217     0.3602303     0.5220096
C           2.5144507     2.6962985     1.5306668
O           2.7883292     3.7667529     1.0025143
N           1.3887587     2.4433105     2.2557329
H           0.6771369     3.1627345     2.1902134
H           1.0485513     1.4831190     2.1995999
C           1.9972854    -0.3519872     0.2291895
O           0.9280453    -0.0502327     0.7687269
N           2.1219427    -1.3574062    -0.6735620
H           1.3274637    -1.9553527    -0.8461318
H           3.0418999    -1.6264411    -0.9946865
N           4.4900275    -0.1386298     0.1449431
C           5.3710660     0.7025347     0.6403425
H           6.4459302     0.6175636     0.5550740
N           4.7660073     1.7108136     1.3279617
H           5.2011276     2.5500589     1.6879292
17
418_C5H6N4O2_1-0-2-3 (-90,) energy =    -563.6235226
C           3.3766383     1.5145986     1.2248874
C           3.2710632     0.3545892     0.4767762
C           2.4333225     2.6774034     1.4095530
O           2.4922571     3.6409578     0.6623790
N           1.5151347     2.5272375     2.4118371
H           0.7385377     3.1784614     2.3649947
H           1.2492969     1.5694478     2.6155185
C           2.0034227    -0.3259033     0.1230829
O           0.9203728     0.0414449     0.5810356
N           2.1514805    -1.3706282    -0.7335819
H           1.3482526    -1.9444749    -0.9429406
H           3.0789835    -1.6823508    -0.9864843
N           4.5132268    -0.1678803     0.1903379
C           5.3717082     0.6745552     0.7179967
H           6.4488646     0.5775703     0.7032966
N           4.7367255     1.7114275     1.3405183
H           5.1723112     2.5269653     1.7497765
17
418_C5H6N4O2_1-0-2-3 (-75,) energy =    -563.6202306
C           3.2970721     1.5439257     1.0669244
C           3.2332952     0.3455029     0.3866518
C           2.2826848     2.6372615     1.2829890
O           1.9865610     3.4194757     0.3986892
N           1.7939431     2.7101437     2.5642106
H           0.9908539     3.3178820     2.6818079
H           1.7794917     1.8590509     3.1118478
C           1.9927527    -0.3187420    -0.0810424
O           0.8801025     0.1204243     0.1986208
N           2.2108231    -1.4360405    -0.8271551
H           1.4184452    -1.9842782    -1.1259266
H           3.1506045    -1.7848321    -0.9521906
N           4.4884421    -0.2149865     0.2642929
C           5.3071808     0.6310694     0.8439928
H           6.3787617     0.5196185     0.9401613
N           4.6350946     1.7122569     1.3484089
H           5.0424960     2.5172510     1.8046282
17
418_C5H6N4O2_1-0-2-3 (-60,) energy =    -563.6196312
C           3.2010287     1.5447720     0.9981325
C           3.1861147     0.3370396     0.3295696
C           2.1652027     2.5999270     1.2467756
O           1.6041057     3.2010621     0.3517184
N           2.0081458     2.9084427     2.5847450
H           1.2325891     3.5309135     2.7830043
H           2.1515019     2.1703115     3.2628300
C           1.9939368    -0.3635519    -0.2172982
O           0.8511461     0.0192256     0.0063814
N           2.3031447    -1.4543197    -0.9748689
H           1.5497398    -2.0478957    -1.2884137
H           3.2572484    -1.7847580    -1.0120598
N           4.4491262    -0.2189369     0.3062859
C           5.2214050     0.6294421     0.9451071
H           6.2847614     0.5230873     1.1124307
N           4.5116996     1.7065552     1.3984545
H           4.8773159     2.5175112     1.8791452
17
418_C5H6N4O2_1-0-2-3 (-45,) energy =    -563.6196704
C           3.1240795     1.5085197     1.0127228
C           3.1346636     0.3156407     0.3129962
C           2.0901307     2.5518529     1.2766123
O           1.3495812     2.9971168     0.4228443
N           2.1439390     3.0555283     2.5709274
H           1.3839370     3.6909310     2.7889745
H           2.3743930     2.4085820     3.3160370
C           1.9729795    -0.4067194    -0.2795243
O           0.8128625    -0.0863249    -0.0572308
N           2.3407012    -1.4486423    -1.0817163
H           1.6165084    -2.0696061    -1.4114437
H           3.3048371    -1.7512628    -1.0931530
N           4.4031400    -0.2262490     0.3061486
C           5.1543332     0.6136491     0.9825692
H           6.2153806     0.5119111     1.1668574
N           4.4265294     1.6697002     1.4475665
H           4.7736317     2.4838316     1.9368734
17
418_C5H6N4O2_1-0-2-3 (-30,) energy =    -563.6192155
C           3.0718410     1.4615913     1.0598545
C           3.1021505     0.2922172     0.3172686
C           2.0468638     2.5087761     1.3158799
O           1.1783936     2.8163861     0.5246486
N           2.2409192     3.1800274     2.5246802
H           1.4879960     3.8265630     2.7360068
H           2.5282585     2.6202869     3.3200834
C           1.9630329    -0.4414090    -0.3115047
O           0.7919355    -0.1810283    -0.0760624
N           2.3720510    -1.4256927    -1.1671004
H           1.6706522    -2.0629242    -1.5151753
H           3.3441721    -1.7022996    -1.1740449
N           4.3763311    -0.2338273     0.3036253
C           5.1150178     0.5948222     1.0087013
H           6.1760530     0.4977137     1.1958151
N           4.3742398     1.6259660     1.5010080
H           4.7138195     2.4447839     1.9879619
17
418_C5H6N4O2_1-0-2-3 (-15,) energy =    -563.6177319
C           3.0308499     1.4145383     1.1235538
C           3.0768056     0.2740577     0.3333598
C           2.0195157     2.4749661     1.3630160
O           1.0498702     2.6653921     0.6572055
N           2.3216744     3.2888148     2.4629594
H           1.5725009     3.9441077     2.6618134
H           2.6581711     2.8157613     3.2954490
C           1.9544574    -0.4618754    -0.3275151
O           0.7770986    -0.2538731    -0.0766957
N           2.3918540    -1.3874116    -1.2349900
H           1.7088144    -2.0336556    -1.6029292
H           3.3700300    -1.6422050    -1.2448492
N           4.3558764    -0.2367535     0.3025234
C           5.0872025     0.5774728     1.0326286
H           6.1491381     0.4837837     1.2166845
N           4.3374329     1.5823943     1.5587193
H           4.6764685     2.4043268     2.0406614
17
418_C5H6N4O2_1-0-2-3 (0,) energy =    -563.6150312
C           2.9969840     1.3571584     1.1921123
C           3.0608961     0.2475079     0.3554449
C           1.9930435     2.4261715     1.4178487
O           0.9340922     2.5061595     0.8289161
N           2.3860677     3.3708492     2.3817979
H           1.6336354     4.0254791     2.5723615
H           2.7823417     2.9939939     3.2376140
C           1.9568502    -0.4891409    -0.3390773
O           0.7742437    -0.3295289    -0.0810003
N           2.4219513    -1.3577868    -1.2890154
H           1.7558261    -2.0056753    -1.6841287
H           3.4061505    -1.5877166    -1.3060754
N           4.3464399    -0.2420982     0.3029862
C           5.0687846     0.5594455     1.0560293
H           6.1321783     0.4720998     1.2350151
N           4.3083269     1.5348425     1.6169624
H           4.6475302     2.3581815     2.0957472
17
418_C5H6N4O2_1-0-2-3 (15,) energy =    -563.6177309
C           3.0285257     1.4404985     1.0654597
C           3.1046026     0.1619612     0.5296697
C           2.0903475     2.1309396     1.9862063
O           1.2720504     1.5624531     2.6802447
N           2.2785445     3.5192722     2.0271196
H           1.5687246     3.9769698     2.5901185
H           2.4259100     3.9802333     1.1349137
C           2.0471347    -0.8932822     0.4506121
O           0.8681949    -0.6787822     0.6886442
N           2.5442346    -2.1125735     0.0814442
H           1.8778258    -2.8374970    -0.1413303
H           3.4862204    -2.1739213    -0.2796928
N           4.3219768    -0.0277101    -0.0866239
C           4.9910170     1.0922715     0.0835485
H           5.9958117     1.2900255    -0.2651890
N           4.2549753     2.0130266     0.7611087
H           4.5794253     2.8955604     1.1335206
17
418_C5H6N4O2_1-0-2-3 (30,) energy =    -563.6192155
C           3.0802649     1.4192113     1.1379020
C           3.1278174     0.1630585     0.5551445
C           2.1251479     2.1147135     2.0416452
O           1.4303730     1.5479652     2.8607883
N           2.1763239     3.5051796     1.9258071
H           1.4598776     3.9680836     2.4753387
H           2.2770256     3.8849499     0.9908349
C           2.0470416    -0.8642444     0.4672544
O           0.8812683    -0.6306691     0.7520615
N           2.5018110    -2.0788188     0.0358060
H           1.8132509    -2.7806702    -0.1932568
H           3.4329669    -2.1492088    -0.3509400
N           4.3343971    -0.0226842    -0.0852536
C           5.0177928     1.0842803     0.1072299
H           6.0203280     1.2816540    -0.2480217
N           4.3013595     1.9928572     0.8252741
H           4.6278915     2.8773421     1.1912852
17
418_C5H6N4O2_1-0-2-3 (45,) energy =    -563.6196704
C           3.1435636     1.4104689     1.1933038
C           3.1625549     0.1752737     0.5715137
C           2.1779934     2.1095930     2.0911521
O           1.6315280     1.5778658     3.0367923
N           2.0622795     3.4666165     1.8137832
H           1.3367747     3.9283654     2.3516636
H           2.1075940     3.7516324     0.8424185
C           2.0546360    -0.8177343     0.4774695
O           0.9071994    -0.5611708     0.8173270
N           2.4548558    -2.0232505    -0.0234188
H           1.7423349    -2.7029682    -0.2449345
H           3.3765788    -2.1123679    -0.4280826
N           4.3609892    -0.0140299    -0.0847205
C           5.0624105     1.0764092     0.1302588
H           6.0650097     1.2688923    -0.2273440
N           4.3654652     1.9771189     0.8813607
H           4.6985793     2.8616628     1.2409836
17
418_C5H6N4O2_1-0-2-3 (60,) energy =    -563.6196312
C           3.2248016     1.4251314     1.2184771
C           3.2122710     0.2054035     0.5720065
C           2.2609644     2.1179008     2.1345557
O           1.9115467     1.6534686     3.2020439
N           1.9134356     3.3852207     1.7066130
H           1.1747602     3.8220313     2.2468169
H           1.8760965     3.5566840     0.7094198
C           2.0688148    -0.7404478     0.4768553
O           0.9437598    -0.4469500     0.8649690
N           2.3998161    -1.9409219    -0.0786605
H           1.6583863    -2.5947794    -0.2811800
H           3.3134438    -2.0676083    -0.4911186
N           4.4067885    -0.0057811    -0.0863087
C           5.1358889     1.0599491     0.1521995
H           6.1431434     1.2360047    -0.2006156
N           4.4605319     1.9641551     0.9240045
H           4.8129684     2.8414545     1.2825054
17
418_C5H6N4O2_1-0-2-3 (75,) energy =    -563.6202306
C           3.3076977     1.4904580     1.1653939
C           3.2499444     0.2617250     0.5409458
C           2.3737194     2.1790183     2.1269646
O           2.2990149     1.8466401     3.2955016
N           1.6886568     3.2401403     1.5880599
H           0.9349378     3.5993516     2.1633879
H           1.5077332     3.2270467     0.5922840
C           2.0491725    -0.6027129     0.4419590
O           0.9495318    -0.2290416     0.8422456
N           2.2863916    -1.8163904    -0.1266436
H           1.5083098    -2.4365870    -0.2928861
H           3.1988119    -2.0274450    -0.5053568
N           4.4526923    -0.0349892    -0.0672256
C           5.2369777     0.9844909     0.1930674
H           6.2636021     1.0993456    -0.1275669
N           4.5905018     1.9367509     0.9349377
H           4.9874842     2.7941851     1.2945753
17
418_C5H6N4O2_1-0-2-3 (90,) energy =    -563.6235226
C           3.3571353     1.6127984     1.0440180
C           3.2729717     0.3450079     0.4944158
C           2.5043771     2.3197504     2.0682656
O           2.7720227     2.2326854     3.2561060
N           1.4235801     2.9881335     1.5629594
H           0.7269336     3.2368994     2.2573576
H           1.0429754     2.6080614     0.7026093
C           2.0253024    -0.4360158     0.3258793
O           0.9188574     0.0490978     0.5669329
N           2.2185149    -1.7080402    -0.1121487
H           1.4127150    -2.2689406    -0.3453515
H           3.1433118    -2.0061404    -0.3901407
N           4.4934682    -0.0683936     0.0070973
C           5.3250587     0.9094055     0.2854462
H           6.3767631     0.9405417     0.0347737
N           4.6915521     1.9388474     0.9216530
H           5.1249180     2.7655596     1.3103303
17
418_C5H6N4O2_1-0-2-3 (105,) energy =    -563.6300974
C           3.3693645     1.6695481     0.9915996
C           3.2586018     0.3850244     0.4763363
C           2.5657553     2.4380618     2.0062757
O           3.0179360     2.6109745     3.1312029
N           1.3177061     2.8009991     1.5969394
H           0.6940759     3.0774875     2.3472120
H           0.9067423     2.1969837     0.8848060
C           1.9994157    -0.3626830     0.2488819
O           0.8871826     0.1554911     0.3898212
N           2.1807780    -1.6535458    -0.1281434
H           1.3753357    -2.1963064    -0.4023534
H           3.1132554    -1.9856061    -0.3331891
N           4.4808010    -0.0921560     0.0593410
C           5.3397593     0.8601544     0.3500344
H           6.4019418     0.8390215     0.1471905
N           4.7223307     1.9306991     0.9229733
H           5.1655039     2.7294075     1.3576013
17
418_C5H6N4O2_1-0-2-3 (120,) energy =    -563.6366702
C           3.3754317     1.6831350     0.9961122
C           3.2458189     0.4026517     0.4709259
C           2.5831479     2.5172853     1.9595588
O           3.1181945     2.9108400     2.9923720
N           1.2790268     2.7043499     1.6302569
H           0.6922185     3.0556583     2.3774775
H           0.8678584     2.0095283     1.0021288
C           1.9898440    -0.3450886     0.2245547
O           0.8696160     0.1559625     0.3752182
N           2.1804938    -1.6247816    -0.1809082
H           1.3788485    -2.1686871    -0.4637252
H           3.1165087    -1.9459586    -0.3877055
N           4.4675347    -0.0950649     0.0753711
C           5.3391219     0.8403158     0.3861794
H           6.4047902     0.7963185     0.2069707
N           4.7319350     1.9191047     0.9499823
H           5.1692237     2.7043345     1.4156554
17
418_C5H6N4O2_1-0-2-3 (135,) energy =    -563.6419919
C           3.3821849     1.6747492     1.0148778
C           3.2369592     0.4046197     0.4675617
C           2.5915513     2.5723222     1.9147593
O           3.1717072     3.1572747     2.8289601
N           1.2616522     2.6288552     1.6678636
H           0.6964304     3.0690191     2.3825324
H           0.8502198     1.8749592     1.1097859
C           1.9854397    -0.3486870     0.2141585
O           0.8586076     0.1253970     0.4043374
N           2.1862463    -1.6075320    -0.2449155
H           1.3864775    -2.1584105    -0.5189218
H           3.1242751    -1.9139554    -0.4644550
N           4.4583467    -0.0998942     0.0770312
C           5.3383193     0.8218789     0.4073185
H           6.4053877     0.7662590     0.2404792
N           4.7386194     1.8981683     0.9807692
H           5.1657201     2.6840666     1.4564133
17
418_C5H6N4O2_1-0-2-3 (150,) energy =    -563.6457483
C           3.4032433     1.6550001     1.0555244
C           3.2502352     0.3983599     0.4798674
C           2.6048189     2.6105990     1.8818644
O           3.2018561     3.3581439     2.6592188
N           1.2653073     2.5595571     1.7204524
H           0.7071001     3.0922995     2.3736145
H           0.8566723     1.7606737     1.2254341
C           2.0043073    -0.3619768     0.2193666
O           0.8730913     0.0768659     0.4640034
N           2.2144025    -1.5884340    -0.3141045
H           1.4184637    -2.1584012    -0.5577462
H           3.1552711    -1.8844308    -0.5350581
N           4.4734520    -0.1048254     0.0904419
C           5.3558244     0.8079290     0.4405202
H           6.4238309     0.7473418     0.2820875
N           4.7575720     1.8767554     1.0277886
H           5.1716539     2.6762664     1.4935640
17
418_C5H6N4O2_1-0-2-3 (165,) energy =    -563.6479518
C           3.4131376     1.6317013     1.1001449
C           3.2507181     0.3911490     0.4931756
C           2.6059610     2.6429056     1.8450971
O           3.2025700     3.5219230     2.4730001
N           1.2672072     2.5072938     1.7746849
H           0.7046217     3.1301895     2.3368302
H           0.8611071     1.6789498     1.3282450
C           2.0064400    -0.3695567     0.2258075
O           0.8759168     0.0414937     0.5184773
N           2.2163975    -1.5653008    -0.3726912
H           1.4226436    -2.1416991    -0.6079799
H           3.1570931    -1.8485862    -0.6102622
N           4.4734185    -0.1109502     0.0993164
C           5.3599561     0.7912701     0.4669038
H           6.4282272     0.7260126     0.3124945
N           4.7662330     1.8515107     1.0730738
H           5.1733260     2.6689172     1.5141800
17
418_C5H6N4O2_1-0-2-3 (180,) energy =    -563.6486746
C           3.4195196     1.6050348     1.1535419
C           3.2547452     0.3847801     0.5072799
C           2.6013506     2.6612777     1.8187192
O           3.1829952     3.6432378     2.2893399
N           1.2716047     2.4538342     1.8523222
H           0.6967347     3.1551264     2.2967687
H           0.8688743     1.6091146     1.4345564
C           2.0123558    -0.3755149     0.2299461
O           0.8836822     0.0102672     0.5618183
N           2.2216410    -1.5415122    -0.4246507
H           1.4297802    -2.1218611    -0.6564887
H           3.1617840    -1.8131014    -0.6775749
N           4.4778278    -0.1093559     0.1041226
C           5.3647280     0.7837232     0.4927282
H           6.4333830     0.7197903     0.3405881
N           4.7715336     1.8279207     1.1263452
H           5.1719846     2.6646324     1.5364948
