17
418_C5H6N4O2_0-1-7-8 (-165,) energy =    -563.6240972
C           3.5288293     1.4557740     1.0033287
C           3.5514093     0.0649483     0.8430301
C           2.5729290     2.5915337     1.1409739
O           3.0217598     3.7309158     1.2733821
N           1.2422428     2.3186349     1.1223254
H           0.6201057     3.0863830     1.3337820
H           0.8922122     1.3663684     1.1462335
C           2.4812244    -0.9155406     0.5033687
O           2.6111264    -2.1142358     0.6601516
N           1.2970631    -0.3706725    -0.0148525
H           0.6822585    -1.0981813    -0.3676521
H           1.4097550     0.3996746    -0.6671367
N           4.8417251    -0.4000865     0.9416369
C           5.5859069     0.6624506     1.1622518
H           6.6598880     0.6617439     1.2911843
N           4.8433142     1.7969718     1.2071848
H           5.1190535     2.7577596     1.3770855
17
418_C5H6N4O2_0-1-7-8 (-150,) energy =    -563.6253252
C           3.5286513     1.4629035     1.0218051
C           3.5542464     0.0796430     0.8214044
C           2.5648456     2.5854257     1.2013406
O           3.0062737     3.7168508     1.4096800
N           1.2395077     2.3061685     1.1324164
H           0.5998253     3.0604210     1.3377118
H           0.8938845     1.3581064     1.0204425
C           2.4570339    -0.8968093     0.5665607
O           2.5077164    -2.0592401     0.9182386
N           1.3316031    -0.3747952    -0.0865604
H           0.6876139    -1.1061757    -0.3727229
H           1.5151095     0.3062896    -0.8170199
N           4.8467697    -0.3852119     0.8758683
C           5.5928106     0.6764326     1.1007484
H           6.6702186     0.6774549     1.1964937
N           4.8471625     1.8055566     1.1977291
H           5.1221636     2.7606448     1.3978656
17
418_C5H6N4O2_0-1-7-8 (-135,) energy =    -563.6254320
C           3.5297388     1.4833078     1.0366757
C           3.5570470     0.1119641     0.7815919
C           2.5554699     2.5884658     1.2513229
O           2.9830493     3.7125885     1.5200473
N           1.2360484     2.2963541     1.1473247
H           0.5804671     3.0431325     1.3267602
H           0.9046305     1.3664456     0.9094655
C           2.4376018    -0.8592154     0.6051049
O           2.4161345    -1.9535990     1.1327857
N           1.3657749    -0.3874163    -0.1633410
H           0.6959023    -1.1175878    -0.3861449
H           1.6054314     0.2017895    -0.9545007
N           4.8509675    -0.3513562     0.7917473
C           5.5986717     0.7069335     1.0321844
H           6.6782646     0.7100870     1.0981724
N           4.8510415     1.8277287     1.1901366
H           5.1280713     2.7761872     1.4161987
17
418_C5H6N4O2_0-1-7-8 (-120,) energy =    -563.6245113
C           3.5327910     1.4961101     1.0625578
C           3.5484753     0.1394625     0.7512287
C           2.5537158     2.5850684     1.3137578
O           2.9662116     3.6937992     1.6579380
N           1.2391531     2.2936046     1.1484119
H           0.5727820     3.0272552     1.3412576
H           0.9206266     1.3870065     0.8221062
C           2.4048523    -0.8195447     0.6400310
O           2.3010076    -1.8149846     1.3291388
N           1.4009519    -0.4220071    -0.2445277
H           0.7058445    -1.1413486    -0.4184927
H           1.6936552     0.0878742    -1.0711083
N           4.8392761    -0.3296542     0.7107240
C           5.5976045     0.7181906     0.9702289
H           6.6786122     0.7151515     1.0054637
N           4.8592779     1.8337054     1.1926510
H           5.1480886     2.7704954     1.4491206
17
418_C5H6N4O2_0-1-7-8 (-105,) energy =    -563.6228458
C           3.5317664     1.4960051     1.1191965
C           3.5244614     0.1527072     0.7681576
C           2.5534277     2.5750091     1.3929082
O           2.9543993     3.6747322     1.7753893
N           1.2406696     2.2781091     1.2050287
H           0.5715115     3.0170779     1.3657591
H           0.9370363     1.4122917     0.7737011
C           2.3529795    -0.7849749     0.7112047
O           2.1458857    -1.6410081     1.5486437
N           1.4464924    -0.5027642    -0.3048464
H           0.7316348    -1.2106893    -0.4397268
H           1.8118689    -0.0923810    -1.1565382
N           4.8076109    -0.3273326     0.6676893
C           5.5848748     0.7078933     0.9302592
H           6.6663464     0.6949305     0.9276443
N           4.8652260     1.8219532     1.2111703
H           5.1743667     2.7492170     1.4770853
17
418_C5H6N4O2_0-1-7-8 (-90,) energy =    -563.6232327
C           3.4845679     1.5561997     1.0929444
C           3.3899840     0.1887167     0.9055594
C           2.5346572     2.6551278     1.3609226
O           2.9130886     3.8251589     1.3452582
N           1.2480386     2.2727305     1.6085858
H           0.6068662     3.0009793     1.8918061
H           1.0289107     1.3189618     1.8726251
C           2.1389507    -0.6064899     0.6473132
O           1.4579759    -1.0890426     1.5458357
N           1.8478006    -0.7673223    -0.6739139
H           1.1130610    -1.4199672    -0.9153502
H           2.5280703    -0.5317369    -1.3818744
N           4.6392682    -0.3666920     0.7637604
C           5.4822871     0.6421880     0.9107354
H           6.5606394     0.5658902     0.8783381
N           4.8352309     1.8181813     1.1068977
H           5.2121097     2.7475252     1.2459721
17
418_C5H6N4O2_0-1-7-8 (-75,) energy =    -563.6287327
C           3.4590197     1.5885615     1.1197772
C           3.3267253     0.2300920     0.8870194
C           2.5451223     2.6976926     1.4762873
O           2.9676093     3.8529946     1.5212102
N           1.2603763     2.3365504     1.7343672
H           0.6308509     3.0614473     2.0486729
H           0.9988927     1.3629146     1.8657886
C           2.0630101    -0.5023414     0.5530691
O           1.1925826    -0.7497449     1.3867472
N           2.0015584    -0.9348634    -0.7361538
H           1.2754749    -1.6013865    -0.9656269
H           2.8416431    -0.9359245    -1.2979405
N           4.5596962    -0.3327275     0.6381870
C           5.4274278     0.6519885     0.7952067
H           6.5015492     0.5605703     0.7083592
N           4.8105533     1.8270284     1.0804470
H           5.2063541     2.7447111     1.2450764
17
418_C5H6N4O2_0-1-7-8 (-60,) energy =    -563.6353941
C           3.4397778     1.6102561     1.1436451
C           3.2952485     0.2659848     0.8355854
C           2.5543433     2.7195128     1.5796921
O           3.0208876     3.8531041     1.7046190
N           1.2652334     2.3810058     1.8179621
H           0.6468856     3.1046649     2.1556200
H           0.9602366     1.4076016     1.8093755
C           2.0337192    -0.4408603     0.4689096
O           1.0537326    -0.4980341     1.2165036
N           2.0948181    -1.0894534    -0.7245233
H           1.3582231    -1.7517533    -0.9290617
H           3.0003965    -1.2285061    -1.1528641
N           4.5229570    -0.2814579     0.5225155
C           5.3975210     0.6878910     0.7176037
H           6.4691281     0.6011391     0.6004773
N           4.7894884     1.8447202     1.0869706
H           5.1875282     2.7521220     1.2990655
17
418_C5H6N4O2_0-1-7-8 (-45,) energy =    -563.6412376
C           3.4281767     1.6024962     1.1400110
C           3.2729962     0.2822152     0.7399626
C           2.5705226     2.7127890     1.6354875
O           3.0832282     3.8153077     1.8412190
N           1.2692753     2.4104004     1.8328535
H           0.6668734     3.1386925     2.1886519
H           0.9245095     1.4558842     1.7089081
C           2.0130912    -0.4195478     0.3764921
O           0.9728204    -0.3262322     1.0373870
N           2.1305175    -1.2321324    -0.7052225
H           1.3769852    -1.8810038    -0.8861426
H           3.0576654    -1.4457694    -1.0490621
N           4.4968717    -0.2542681     0.3946818
C           5.3787917     0.6943618     0.6437118
H           6.4492306     0.6094182     0.5156281
N           4.7790472     1.8284938     1.0893436
H           5.1799193     2.7214209     1.3530560
17
418_C5H6N4O2_0-1-7-8 (-30,) energy =    -563.6454589
C           3.4218062     1.6056208     1.1467328
C           3.2625987     0.3144399     0.6583915
C           2.5864200     2.7068071     1.7041821
O           3.1348186     3.7714756     2.0013886
N           1.2725558     2.4411537     1.8470553
H           0.6854030     3.1660549     2.2338778
H           0.8985770     1.5162103     1.6170358
C           2.0074500    -0.3998785     0.3151926
O           0.9268164    -0.1863673     0.8784507
N           2.1623289    -1.3488476    -0.6413847
H           1.3944965    -1.9827738    -0.8103116
H           3.0986720    -1.6029845    -0.9275938
N           4.4855532    -0.2085361     0.2908670
C           5.3701133     0.7215086     0.5902031
H           6.4398126     0.6420021     0.4532325
N           4.7733483     1.8278545     1.1042210
H           5.1737281     2.7040764     1.4206177
17
418_C5H6N4O2_0-1-7-8 (-15,) energy =    -563.6478961
C           3.4138738     1.6070602     1.1519663
C           3.2510391     0.3494010     0.5820370
C           2.5913737     2.6904934     1.7647729
O           3.1628124     3.7146543     2.1497410
N           1.2680883     2.4568360     1.8535013
H           0.6899864     3.1729603     2.2691970
H           0.8755224     1.5680354     1.5283787
C           2.0017063    -0.3865833     0.2705361
O           0.8932728    -0.0768028     0.7262644
N           2.1850767    -1.4519017    -0.5458233
H           1.4033863    -2.0646305    -0.7245729
H           3.1246641    -1.7253921    -0.8002597
N           4.4737751    -0.1600116     0.1966412
C           5.3604337     0.7509523     0.5426336
H           6.4296788     0.6781850     0.3987271
N           4.7660512     1.8276907     1.1181412
H           5.1664913     2.6846272     1.4840212
17
418_C5H6N4O2_0-1-7-8 (0,) energy =    -563.6486743
C           3.4109348     1.6087133     1.1558828
C           3.2460967     0.3861903     0.5139699
C           2.5926525     2.6663040     1.8187898
O           3.1741769     3.6487467     2.2885437
N           1.2628252     2.4593406     1.8516402
H           0.6872471     3.1617740     2.2933727
H           0.8604680     1.6142942     1.4342366
C           2.0034178    -0.3736432     0.2366620
O           0.8744124     0.0134089     0.5659229
N           2.2129088    -1.5410372    -0.4154222
H           1.4210264    -2.1221219    -0.6453453
H           3.1533866    -1.8147954    -0.6648498
N           4.4693323    -0.1100855     0.1139593
C           5.3563863     0.7836583     0.5007340
H           6.4251711     0.7184609     0.3500429
N           4.7631351     1.8307124     1.1295566
H           5.1638183     2.6677599     1.5387907
17
418_C5H6N4O2_0-1-7-8 (15,) energy =    -563.6478961
C           3.4140801     1.6062228     1.1534478
C           3.2354678     0.4278368     0.4375272
C           2.6021905     2.6363341     1.8644840
O           3.1917249     3.5695178     2.4169915
N           1.2668741     2.4632288     1.8417300
H           0.6946107     3.1498891     2.3116784
H           0.8553027     1.6701435     1.3403292
C           1.9938265    -0.3469061     0.1974467
O           0.8576644     0.1025079     0.3960432
N           2.2132056    -1.5935523    -0.2849619
H           1.4199984    -2.1484103    -0.5702370
H           3.1535479    -1.8709072    -0.5323318
N           4.4543826    -0.0624106     0.0167924
C           5.3498125     0.8044928     0.4438928
H           6.4172507     0.7407980     0.2832464
N           4.7675428     1.8203796     1.1314969
H           5.1772789     2.6306022     1.5833992
17
418_C5H6N4O2_0-1-7-8 (30,) energy =    -563.6454589
C           3.4225969     1.6017951     1.1537097
C           3.2310854     0.4731495     0.3660199
C           2.6087890     2.5944791     1.9110257
O           3.1938119     3.4748563     2.5476386
N           1.2709143     2.4496933     1.8313290
H           0.6953636     3.1163481     2.3254687
H           0.8586285     1.7174731     1.2463814
C           1.9909086    -0.3165755     0.1617398
O           0.8556630     0.1718877     0.2186320
N           2.2158863    -1.6184970    -0.1447804
H           1.4327716    -2.1755609    -0.4552249
H           3.1600210    -1.9119091    -0.3586937
N           4.4460496    -0.0096645    -0.0755091
C           5.3488214     0.8287531     0.3925612
H           6.4149553     0.7671695     0.2225487
N           4.7770131     1.8095550     1.1378179
H           5.1965861     2.5892157     1.6320478
17
418_C5H6N4O2_0-1-7-8 (45,) energy =    -563.6412376
C           3.4296746     1.5950617     1.1536287
C           3.2249433     0.5241960     0.2942141
C           2.6050443     2.5392363     1.9550877
O           3.1735157     3.3611424     2.6776184
N           1.2672685     2.4207237     1.8138481
H           0.6821573     3.0620810     2.3297897
H           0.8635134     1.7630685     1.1431781
C           1.9845667    -0.2759141     0.1119202
O           0.8620659     0.2313713     0.0104015
N           2.2056507    -1.6103763    -0.0086019
H           1.4372175    -2.1843019    -0.3275018
H           3.1538987    -1.9302887    -0.1567684
N           4.4359309     0.0525417    -0.1704973
C           5.3460773     0.8591100     0.3401656
H           6.4109840     0.8019991     0.1607992
N           4.7851151     1.7980476     1.1453085
H           5.2153641     2.5431285     1.6813136
17
418_C5H6N4O2_0-1-7-8 (60,) energy =    -563.6353941
C           3.4411818     1.6033750     1.1562382
C           3.2295479     0.5967661     0.2262894
C           2.5989907     2.4950937     1.9929785
O           3.1382464     3.2627461     2.7918605
N           1.2631447     2.3918610     1.7979863
H           0.6649429     3.0141532     2.3223492
H           0.8777134     1.8232785     1.0438185
C           1.9876477    -0.2089414     0.0417404
O           0.8965477     0.2932424    -0.2408390
N           2.1865556    -1.5513293     0.1261113
H           1.4374620    -2.1507675    -0.1941728
H           3.1342618    -1.9024898     0.0883875
N           4.4379923     0.1462163    -0.2652817
C           5.3516919     0.9186438     0.2924526
H           6.4157733     0.8697480     0.1055667
N           4.7972359     1.8059021     1.1583283
H           5.2345352     2.5157619     1.7342331
17
418_C5H6N4O2_0-1-7-8 (75,) energy =    -563.6287327
C           3.4620728     1.5733571     1.1476943
C           3.2487557     0.6226475     0.1639436
C           2.6050492     2.3963443     2.0312572
O           3.1161889     3.1054611     2.8979325
N           1.2681882     2.2975441     1.8062202
H           0.6629819     2.9001118     2.3458529
H           0.9023532     1.8491178     0.9703430
C           1.9970122    -0.1700973    -0.0588826
O           0.9822434     0.3090794    -0.5633683
N           2.1107484    -1.4845338     0.2761807
H           1.3757190    -2.1060783    -0.0361049
H           3.0285373    -1.8767668     0.4348138
N           4.4503853     0.2175236    -0.3753742
C           5.3650338     0.9661268     0.2164771
H           6.4261669     0.9400602     0.0092248
N           4.8174121     1.7926590     1.1436075
H           5.2612686     2.4685048     1.7536292
17
418_C5H6N4O2_0-1-7-8 (90,) energy =    -563.6232327
C           3.4886988     1.5355875     1.1308237
C           3.3041187     0.6210245     0.1092687
C           2.6099995     2.2761552     2.0588496
O           3.0891933     2.9390467     2.9772051
N           1.2711137     2.1568604     1.8219829
H           0.6599003     2.7343855     2.3828264
H           0.9267660     1.8333617     0.9252210
C           2.0467009    -0.1420973    -0.2080225
O           1.1862219     0.2789393    -0.9736795
N           1.9644701    -1.3546515     0.4077916
H           1.2241582    -1.9792983     0.1148175
H           2.7706444    -1.7528671     0.8671202
N           4.5047625     0.3103971    -0.4834051
C           5.3989636     1.0616999     0.1379399
H           6.4566174     1.0895716    -0.0863514
N           4.8364933     1.8120088     1.1181368
H           5.2670301     2.4713175     1.7545404
17
418_C5H6N4O2_0-1-7-8 (105,) energy =    -563.6228456
C           3.5255192     1.5285968     1.0590674
C           3.4557210     0.4991820     0.1300288
C           2.6161086     2.2603228     1.9722020
O           3.0453944     3.2177284     2.6167997
N           1.3312545     1.8231252     2.0425524
H           0.7120823     2.3021653     2.6804018
H           1.0266999     0.9632055     1.6002316
C           2.2303309    -0.1675362    -0.4256601
O           1.8119426     0.0404954    -1.5475834
N           1.5330838    -0.9385264     0.4978825
H           0.7895112    -1.5029465     0.0992921
H           2.0689881    -1.3880983     1.2313378
N           4.6895518     0.2672356    -0.4275401
C           5.5025455     1.1232556     0.1649793
H           6.5640147     1.2110542    -0.0229976
N           4.8492431     1.9035633     1.0606580
H           5.1921541     2.6611815     1.6390341
17
418_C5H6N4O2_0-1-7-8 (120,) energy =    -563.6245113
C           3.5356202     1.4816521     1.0890418
C           3.4808339     0.4798576     0.1241216
C           2.6301071     2.2002094     2.0224453
O           3.0778047     3.1316684     2.6931520
N           1.3401375     1.7849667     2.0850387
H           0.7195399     2.2881213     2.7024341
H           0.9998879     0.9877417     1.5572922
C           2.2899811    -0.2413372    -0.4251345
O           1.9849857    -0.2240962    -1.6012447
N           1.4856463    -0.8484379     0.5406643
H           0.7671702    -1.4500806     0.1498857
H           1.9553152    -1.2294356     1.3549991
N           4.7132882     0.3045092    -0.4574165
C           5.5091864     1.1631667     0.1505615
H           6.5648543     1.2877049    -0.0491476
N           4.8472666     1.8939523     1.0815742
H           5.1725527     2.6470595     1.6763700
17
418_C5H6N4O2_0-1-7-8 (135,) energy =    -563.6254320
C           3.5357719     1.4528286     1.0926664
C           3.4817838     0.4907616     0.0837503
C           2.6424525     2.1503174     2.0581402
O           3.1187809     3.0288898     2.7791883
N           1.3375290     1.7852466     2.0884300
H           0.7308969     2.2854672     2.7220222
H           0.9679274     1.0476328     1.4964287
C           2.3243609    -0.2891867    -0.4449676
O           2.1180699    -0.4530285    -1.6312159
N           1.4407723    -0.7650986     0.5321172
H           0.7541669    -1.4110002     0.1540886
H           1.8595884    -1.0779050     1.4023345
N           4.7094578     0.3609639    -0.5203722
C           5.4989935     1.2085948     0.1081220
H           6.5487400     1.3619812    -0.1025677
N           4.8390706     1.8878594     1.0792984
H           5.1588481     2.6210571     1.7018633
17
418_C5H6N4O2_0-1-7-8 (150,) energy =    -563.6253252
C           3.5353026     1.4291964     1.0837288
C           3.4695418     0.5058765     0.0361692
C           2.6596334     2.1079832     2.0805560
O           3.1602109     2.9416152     2.8374354
N           1.3442589     1.7785889     2.1039166
H           0.7496591     2.3058010     2.7274035
H           0.9382997     1.1343356     1.4323880
C           2.3464238    -0.3401169    -0.4589845
O           2.2339541    -0.6811341    -1.6202546
N           1.3956538    -0.6974213     0.5074726
H           0.7448290    -1.3943385     0.1578121
H           1.7575532    -0.9143968     1.4310926
N           4.6883887     0.4119396    -0.5925286
C           5.4791685     1.2483141     0.0473011
H           6.5216681     1.4250599    -0.1805833
N           4.8320017     1.8816479     1.0574398
H           5.1546716     2.5967303     1.6996351
17
418_C5H6N4O2_0-1-7-8 (165,) energy =    -563.6240972
C           3.5378861     1.4099478     1.0875767
C           3.4618625     0.5155418     0.0129329
C           2.6780869     2.0618832     2.1163450
O           3.1991900     2.8374034     2.9189605
N           1.3497164     1.7773208     2.1191423
H           0.7725539     2.3185989     2.7477183
H           0.9166139     1.2432860     1.3727289
C           2.3789347    -0.4007546    -0.4449962
O           2.3731840    -0.9165622    -1.5460117
N           1.3502757    -0.6386666     0.4785427
H           0.7394638    -1.3862381     0.1626836
H           1.6377130    -0.7479902     1.4465491
N           4.6712355     0.4579970    -0.6389877
C           5.4609813     1.2911321     0.0041692
H           6.4944854     1.4941916    -0.2421958
N           4.8258881     1.8844568     1.0459096
H           5.1547842     2.5776147     1.7087604
17
418_C5H6N4O2_0-1-7-8 (180,) energy =    -563.6218673
C           3.5284758     1.4502858     0.9797908
C           3.5453377     0.0546853     0.8516296
C           2.5790467     2.5940976     1.0599806
O           3.0253805     3.7401954     1.0955435
N           1.2421959     2.3240533     1.0970269
H           0.6425313     3.1122967     1.3024816
H           0.9034943     1.3922347     1.3095994
C           2.5058798    -0.9289196     0.4233482
O           2.7223181    -2.1251267     0.3784262
N           1.2633920    -0.4004045     0.0546042
H           0.6796943    -1.1118399    -0.3748344
H           1.2781478     0.4671333    -0.4727500
N           4.8309014    -0.4113190     0.9992293
C           5.5738063     0.6503551     1.2239897
H           6.6424115     0.6459871     1.3920161
N           4.8381510     1.7900178     1.2174029
H           5.1198756     2.7537115     1.3573052
