16
162_C5H9NO_4-0-2-11 (-165,) energy =    -325.9104733
N           1.2674055    -0.8984294    -0.4543884
H           1.1781155     0.0701448    -0.1803728
C           2.5397666    -1.3965287    -0.5846605
O           2.7710224    -2.5888343    -0.7662635
C           0.1281978    -1.7695482    -0.2180733
H           0.3972785    -2.7644854    -0.5746842
H          -0.1240916    -1.8333754     0.8490476
H          -0.7487988    -1.4132877    -0.7684875
C           4.9010039    -0.6310730    -1.2715581
H           5.4057845     0.2341714    -1.6914877
H           4.8953770    -1.5196304    -1.8948848
C           3.6354633    -0.3800540    -0.4721749
H           3.3357439     0.6560942    -0.3302379
C           4.9170074    -0.8307762     0.2093624
H           4.9235060    -1.8523275     0.5760939
H           5.4310687    -0.1052591     0.8333913
16
162_C5H9NO_4-0-2-11 (-150,) energy =    -325.9078113
N           1.2523380    -0.9061743    -0.6118653
H           1.1775321     0.0592341    -0.3166455
C           2.5393158    -1.3882433    -0.7270572
O           2.7829936    -2.5746172    -0.9221399
C           0.1811960    -1.7757051    -0.1402590
H           0.3749445    -2.7806459    -0.5170106
H           0.1360914    -1.8132988     0.9570233
H          -0.7827907    -1.4290063    -0.5246610
C           4.9511906    -0.6208492    -1.2248421
H           5.4927686     0.2478928    -1.5876122
H           4.9899769    -1.4985623    -1.8623186
C           3.6271581    -0.3769369    -0.5255165
H           3.3218944     0.6579508    -0.3867519
C           4.8493111    -0.8479595     0.2484085
H           4.8231162    -1.8756385     0.5964900
H           5.3128865    -0.1354674     0.9248571
16
162_C5H9NO_4-0-2-11 (-135,) energy =    -325.9031222
N           1.2033025    -0.9313796    -0.7626284
H           1.1419165     0.0458945    -0.4991008
C           2.5089752    -1.3902759    -0.8662916
O           2.7681990    -2.5671039    -1.0872640
C           0.2137532    -1.7593219    -0.0734071
H           0.3660759    -2.7956975    -0.3778498
H           0.3104050    -1.6932382     1.0194533
H          -0.7957767    -1.4517041    -0.3613993
C           4.9491087    -0.6050192    -1.1904125
H           5.5125973     0.2771175    -1.4799908
H           5.0270139    -1.4538832    -1.8625853
C           3.5834419    -0.3889624    -0.5655758
H           3.2713425     0.6392501    -0.3967326
C           4.7567086    -0.8975653     0.2613914
H           4.7087346    -1.9393737     0.5615092
H           5.1747897    -0.2157983     0.9966119
16
162_C5H9NO_4-0-2-11 (-120,) energy =    -325.8969617
N           1.1731317    -0.9655239    -0.8997750
H           1.1200170     0.0275004    -0.6919889
C           2.5018680    -1.3909349    -1.0025542
O           2.7817359    -2.5515040    -1.2682186
C           0.2884142    -1.7236699    -0.0076170
H           0.3999311    -2.7857744    -0.2323724
H           0.5236425    -1.5589566     1.0538096
H          -0.7508586    -1.4361921    -0.1909129
C           4.9581890    -0.5901924    -1.1494700
H           5.5363887     0.3033862    -1.3655132
H           5.0793494    -1.4096318    -1.8511967
C           3.5553369    -0.4012802    -0.6036279
H           3.2313123     0.6181369    -0.4071275
C           4.6779979    -0.9449571     0.2732529
H           4.6150502    -1.9984170     0.5259985
H           5.0453801    -0.2940462     1.0616276
16
162_C5H9NO_4-0-2-11 (-105,) energy =    -325.8902537
N           1.1599301    -1.0370197    -1.0307803
H           1.0884001    -0.0271211    -0.9242044
C           2.5203774    -1.4118454    -1.0952192
O           2.8451988    -2.5485243    -1.3978272
C           0.3763458    -1.6758506     0.0391305
H           0.4615402    -2.7596943    -0.0643969
H           0.7125788    -1.3895045     1.0469601
H          -0.6760672    -1.4009078    -0.0748513
C           4.9555110    -0.5308585    -1.0992787
H           5.5106286     0.3918222    -1.2404181
H           5.1278663    -1.3018968    -1.8439537
C           3.5260205    -0.4175834    -0.5981377
H           3.1623670     0.5772338    -0.3526453
C           4.6355315    -0.9795092     0.2863873
H           4.5957099    -2.0476221     0.4739202
H           4.9509405    -0.3662911     1.1257484
16
162_C5H9NO_4-0-2-11 (-90,) energy =    -325.8907904
N           1.2368967    -0.8981365    -1.0353898
H           0.8051432    -1.2945433    -1.8728030
C           2.5523003    -1.4508602    -1.0285236
O           2.8465598    -2.4162532    -1.7156938
C           0.3910173    -1.3140146     0.1026723
H           0.8274780    -0.9537592     1.0403445
H          -0.5959006    -0.8551584    -0.0043385
H           0.2730833    -2.4048493     0.1724647
C           4.9215265    -0.4798402    -1.0012339
H           5.3978705     0.4934154    -0.9273405
H           5.0234583    -0.9804768    -1.9587248
C           3.5701247    -0.6338372    -0.3103920
H           3.1904426     0.2248366     0.2336669
C           4.8147822    -1.3296026     0.2189213
H           4.8486092    -2.4063226     0.0821917
H           5.2292459    -0.9642047     1.1540381
16
162_C5H9NO_4-0-2-11 (-75,) energy =    -325.8963501
N           1.2231115    -1.0251168    -1.1014435
H           0.7541908    -1.4986489    -1.8743054
C           2.5532734    -1.4945932    -1.1188413
O           2.9067964    -2.3836951    -1.8806241
C           0.4368559    -1.2496136     0.1233167
H           0.9341050    -0.7786902     0.9770096
H          -0.5443154    -0.7803316     0.0081618
H           0.2966165    -2.3157165     0.3513888
C           4.8884107    -0.4523739    -0.9680111
H           5.3352460     0.5271740    -0.8249581
H           5.0322208    -0.8960740    -1.9477932
C           3.5259434    -0.6839938    -0.3285281
H           3.1092356     0.1304499     0.2558013
C           4.7740299    -1.3738023     0.1999268
H           4.8454551    -2.4393630     0.0033943
H           5.1520137    -1.0513525     1.1658490
16
162_C5H9NO_4-0-2-11 (-60,) energy =    -325.9008506
N           1.2322917    -1.1406575    -1.1267472
H           0.7508073    -1.6757496    -1.8475329
C           2.5823560    -1.4985881    -1.1811498
O           2.9894530    -2.3087480    -2.0048157
C           0.4911553    -1.1944503     0.1382287
H           0.9975668    -0.5935304     0.8982477
H          -0.5043838    -0.7675827    -0.0136979
H           0.3808702    -2.2173118     0.5255499
C           4.8838541    -0.4045858    -0.9137054
H           5.3063467     0.5740196    -0.7050256
H           5.0630471    -0.7921148    -1.9111780
C           3.5121154    -0.6992152    -0.3265731
H           3.0667875     0.0724433     0.2933666
C           4.7609696    -1.3909191     0.1997386
H           4.8623583    -2.4422609    -0.0520680
H           5.1055541    -1.1139217     1.1919466
16
162_C5H9NO_4-0-2-11 (-45,) energy =    -325.9037944
N           1.2355293    -1.2442320    -1.1219982
H           0.7473510    -1.8214750    -1.8017662
C           2.5960984    -1.4994668    -1.2200155
O           3.0326820    -2.2393843    -2.0956735
C           0.5179465    -1.1293674     0.1465701
H           0.9651459    -0.3534189     0.7724818
H          -0.5133466    -0.8298883    -0.0603025
H           0.5010983    -2.0681259     0.7186584
C           4.8735675    -0.3774372    -0.8699752
H           5.2820670     0.5910635    -0.5962367
H           5.0653780    -0.6996629    -1.8880487
C           3.5030401    -0.7278032    -0.3149308
H           3.0463774    -0.0057274     0.3538375
C           4.7582422    -1.4344203     0.1779029
H           4.8771229    -2.4659490    -0.1391630
H           5.0901927    -1.2157017     1.1888302
16
162_C5H9NO_4-0-2-11 (-30,) energy =    -325.9055262
N           1.2518003    -1.3421644    -1.1243958
H           0.7555286    -1.9318532    -1.7837368
C           2.6133186    -1.5339672    -1.2370745
O           3.0754252    -2.2207592    -2.1442240
C           0.5317797    -1.0392778     0.1073827
H           0.8287281    -0.0650593     0.5068402
H          -0.5348063    -0.9833056    -0.1247603
H           0.6750407    -1.7965972     0.8908452
C           4.8402289    -0.3364447    -0.8134879
H           5.2112051     0.6192099    -0.4543663
H           5.0281948    -0.5517603    -1.8602141
C           3.4964203    -0.8020955    -0.2759528
H           3.0215435    -0.1723055     0.4687878
C           4.7902186    -1.4933074     0.1285646
H           4.9471271    -2.4830003    -0.2887447
H           5.1292991    -1.3563947     1.1514423
16
162_C5H9NO_4-0-2-11 (-15,) energy =    -325.9063800
N           1.2094718    -1.4735747    -1.1113194
H           0.6821560    -2.0276421    -1.7742572
C           2.5650056    -1.6037265    -1.2864933
O           3.0174217    -2.2411802    -2.2348908
C           0.5124162    -0.9934053     0.0720239
H           0.7449816     0.0573854     0.2764295
H          -0.5623041    -1.0604606    -0.1137161
H           0.7397213    -1.5829848     0.9703905
C           4.7739590    -0.3744750    -0.8513195
H           5.1354615     0.5642494    -0.4414277
H           4.9345328    -0.5174099    -1.9149602
C           3.4583079    -0.9076885    -0.3069199
H           2.9918013    -0.3411564     0.4920612
C           4.7784917    -1.5916970     0.0131814
H           4.9443730    -2.5477564    -0.4731087
H           5.1454165    -1.5133023     1.0326377
16
162_C5H9NO_4-0-2-11 (0,) energy =    -325.9065685
N           1.2248052    -1.5718557    -1.0462631
H           0.6878752    -2.0454211    -1.7604949
C           2.5764797    -1.6270014    -1.2626535
O           3.0340231    -2.2114852    -2.2428237
C           0.5142580    -0.9313401     0.0477346
H           0.6824981     0.1525236     0.0745213
H          -0.5560120    -1.0984956    -0.0950782
H           0.7900471    -1.3516175     1.0227434
C           4.7467028    -0.3380865    -0.7995468
H           5.0826758     0.5894140    -0.3446450
H           4.8921591    -0.4153204    -1.8722579
C           3.4630511    -0.9508586    -0.2627840
H           2.9930227    -0.4489513     0.5764285
C           4.8142930    -1.6005678    -0.0057701
H           5.0041139    -2.5209094    -0.5486564
H           5.1967101    -1.5652346     1.0103452
16
162_C5H9NO_4-0-2-11 (15,) energy =    -325.9063802
N           1.3825825    -1.6704602     0.3534489
H           0.9813150    -2.4128087     0.9123751
C           2.7438787    -1.7933875     0.2243042
O           3.3578578    -2.6604548     0.8421839
C           0.4806681    -0.8951623    -0.4847347
H           0.6868916     0.1782172    -0.4112321
H           0.5232044    -1.1877238    -1.5425085
H          -0.5399239    -1.0573705    -0.1296572
C           4.6663189    -1.3203939    -1.4105072
H           4.8302957    -0.9355356    -2.4130004
H           4.9034857    -2.3694922    -1.2651352
C           3.4455829    -0.8093972    -0.6594420
H           2.8456725    -0.0538214    -1.1555635
C           4.8516060    -0.4077469    -0.2438628
H           5.2118126    -0.8467829     0.6808478
H           5.1456163     0.6226089    -0.4224580
16
162_C5H9NO_4-0-2-11 (30,) energy =    -325.9055262
N           1.3937905    -1.5733422     0.4181000
H           1.0077722    -2.3424392     0.9549699
C           2.7476727    -1.7536066     0.2238598
O           3.3459071    -2.6623672     0.7934380
C           0.4732333    -0.9439808    -0.5220852
H           0.7203412     0.1118456    -0.6670518
H           0.4529775    -1.4362120    -1.5045144
H          -0.5325419    -0.9862822    -0.0963417
C           4.6447255    -1.2595137    -1.4382343
H           4.7985612    -0.8217795    -2.4204387
H           4.8466606    -2.3233447    -1.3623920
C           3.4638791    -0.7504873    -0.6246872
H           2.8806669     0.0561486    -1.0559445
C           4.8946086    -0.4262826    -0.2252201
H           5.2613151    -0.9320677     0.6619339
H           5.2212867     0.6019694    -0.3511707
16
162_C5H9NO_4-0-2-11 (45,) energy =    -325.9037944
N           1.3800370    -1.4794134     0.4472157
H           1.0059917    -2.2422638     1.0055671
C           2.7286221    -1.7161218     0.2208928
O           3.2946310    -2.6671877     0.7500040
C           0.4500864    -1.0190580    -0.5826630
H           0.7989131    -0.0828875    -1.0250976
H           0.3052575    -1.7505671    -1.3905970
H          -0.5188198    -0.8202401    -0.1160393
C           4.6060562    -1.1897200    -1.4617598
H           4.7573331    -0.6773818    -2.4076066
H           4.7514359    -2.2653690    -1.4854721
C           3.4794439    -0.6906459    -0.5676847
H           2.9302594     0.1825832    -0.9039097
C           4.9364014    -0.4810881    -0.1900882
H           5.2987286    -1.0804899     0.6384880
H           5.3155660     0.5356230    -0.2385894
16
162_C5H9NO_4-0-2-11 (60,) energy =    -325.9008506
N           1.3805472    -1.3818631     0.4824429
H           1.0215768    -2.1161967     1.0903729
C           2.7081500    -1.7043431     0.1871256
O           3.2339207    -2.7082220     0.6522144
C           0.4234529    -1.0844783    -0.5889468
H           0.8017033    -0.2751109    -1.2190576
H           0.2174962    -1.9527441    -1.2309140
H          -0.5166278    -0.7468063    -0.1432768
C           4.6060053    -1.1417094    -1.4700862
H           4.7746433    -0.5787385    -2.3836322
H           4.7219587    -2.2177552    -1.5577432
C           3.4912245    -0.6664770    -0.5500287
H           2.9633107     0.2402494    -0.8279749
C           4.9535729    -0.5195365    -0.1586789
H           5.2979882    -1.1758096     0.6337377
H           5.3584742     0.4882374    -0.1456534
16
162_C5H9NO_4-0-2-11 (75,) energy =    -325.8963498
N           1.3705462    -1.2638651     0.4929214
H           1.0355054    -1.9537077     1.1661225
C           2.6685595    -1.6827302     0.1330603
O           3.1284789    -2.7455639     0.5264519
C           0.3706832    -1.1416823    -0.5812080
H           0.7182502    -0.4277784    -1.3344422
H           0.1632358    -2.0976830    -1.0825184
H          -0.5607764    -0.7541546    -0.1589099
C           4.6202404    -1.1242214    -1.4681459
H           4.8281026    -0.5248940    -2.3498754
H           4.6971914    -2.1985869    -1.6058668
C           3.5055737    -0.6515947    -0.5479630
H           3.0130124     0.2860379    -0.7859849
C           4.9660805    -0.5792313    -0.1229047
H           5.2709592    -1.2844780     0.6433810
H           5.4060458     0.4112952    -0.0526454
16
162_C5H9NO_4-0-2-11 (90,) energy =    -325.8907904
N           1.3752551    -1.1231770     0.4663785
H           1.0898905    -1.7574949     1.2153875
C           2.6524118    -1.6150914     0.0629624
O           3.0384632    -2.7306436     0.3748633
C           0.3279392    -1.2117402    -0.5723362
H           0.5988732    -0.5825004    -1.4268304
H           0.1695780    -2.2376491    -0.9344587
H          -0.6108511    -0.8302903    -0.1610284
C           4.6572067    -1.0761660    -1.4798183
H           4.9071974    -0.4435538    -2.3266074
H           4.6854729    -2.1447602    -1.6707964
C           3.5470582    -0.5978189    -0.5566765
H           3.0997160     0.3717280    -0.7499058
C           5.0040879    -0.6159653    -0.1049843
H           5.2621709    -1.3711210     0.6305124
H           5.4860304     0.3488033     0.0235659
16
162_C5H9NO_4-0-2-11 (105,) energy =    -325.8902538
N           1.2952235    -1.2565623     0.4347820
H           1.2335860    -0.2615462     0.6409111
C           2.6344533    -1.5981967     0.1426486
O           2.9767507    -2.7648243     0.0382552
C           0.3155104    -1.5771246    -0.6159575
H           0.3900330    -2.6411151    -0.8505910
H          -0.6917842    -1.3774499    -0.2395683
H           0.4720417    -0.9996736    -1.5394415
C           4.4785861    -0.7258175    -1.4102723
H           4.6549071     0.1139279    -2.0764708
H           4.3767497    -1.6934119    -1.8908785
C           3.5616732    -0.4762846    -0.2159411
H           3.1871998     0.5368325    -0.0914960
C           5.0543754    -0.6923758    -0.0351786
H           5.3366246    -1.6418737     0.4092704
H           5.6507559     0.1636659     0.2663612
16
162_C5H9NO_4-0-2-11 (120,) energy =    -325.8969617
N           1.2880827    -1.1501422     0.3302830
H           1.2251554    -0.1414486     0.4336384
C           2.6018171    -1.5507791     0.0643605
O           2.8937013    -2.7303532    -0.0742878
C           0.2375976    -1.6394044    -0.5700744
H           0.3594169    -2.7174355    -0.6885283
H          -0.7438030    -1.4464093    -0.1274308
H           0.2825612    -1.1661348    -1.5615770
C           4.5241781    -0.6937648    -1.3954994
H           4.7612389     0.1683288    -2.0125845
H           4.3884136    -1.6291503    -1.9286485
C           3.5925570    -0.4595924    -0.2113678
H           3.2661155     0.5637136    -0.0407661
C           5.0650443    -0.7614636    -0.0057797
H           5.2880754    -1.7462875     0.3929293
H           5.6966579     0.0455488     0.3537581
16
162_C5H9NO_4-0-2-11 (135,) energy =    -325.9031221
N           1.2939005    -1.0770241     0.2060865
H           1.2125777    -0.0674995     0.2559595
C           2.5839037    -1.5108420    -0.0656000
O           2.8464425    -2.6935116    -0.2480253
C           0.1739983    -1.6938869    -0.5043699
H           0.3503438    -2.7694931    -0.5486709
H          -0.7582245    -1.5113700     0.0382162
H           0.0734489    -1.3088320    -1.5289147
C           4.6062557    -0.6506230    -1.3844075
H           4.9040059     0.2266121    -1.9518168
H           4.4779019    -1.5610525    -1.9609174
C           3.6135845    -0.4368065    -0.2495280
H           3.3035473     0.5871786    -0.0534954
C           5.0629433    -0.7877318     0.0308358
H           5.2376015    -1.7927705     0.4021043
H           5.6920495    -0.0126993     0.4587199
16
162_C5H9NO_4-0-2-11 (150,) energy =    -325.9078112
N           1.3153630    -1.0076455     0.0631315
H           1.2148896    -0.0004810     0.0803100
C           2.5885611    -1.4675477    -0.2003942
O           2.8311084    -2.6522722    -0.4065854
C           0.1537956    -1.7305721    -0.4408623
H           0.3840188    -2.7962115    -0.4126987
H          -0.7161021    -1.5354219     0.1934987
H          -0.0876264    -1.4494505    -1.4753536
C           4.6998812    -0.6035776    -1.3744746
H           5.0532655     0.2876606    -1.8853107
H           4.5843614    -1.4854135    -1.9965518
C           3.6494962    -0.4124988    -0.2906036
H           3.3520000     0.6091515    -0.0644911
C           5.0707499    -0.8131478     0.0575874
H           5.2001411    -1.8370924     0.3938250
H           5.6916407    -0.0732482     0.5542421
16
162_C5H9NO_4-0-2-11 (165,) energy =    -325.9104732
N           1.3015461    -0.9537627    -0.0847470
H           1.1907207     0.0498906    -0.0445554
C           2.5626807    -1.4337505    -0.3358191
O           2.7908051    -2.6205505    -0.5538967
C           0.1153249    -1.7485960    -0.3557585
H           0.4166655    -2.7967707    -0.3577137
H          -0.6388892    -1.5912404     0.4223601
H          -0.3258477    -1.5062935    -1.3320296
C           4.7727440    -0.5969205    -1.3444350
H           5.1858478     0.2924465    -1.8117946
H           4.6857957    -1.4667846    -1.9877803
C           3.6473204    -0.3993482    -0.3423765
H           3.3549949     0.6246270    -0.1196720
C           5.0288624    -0.8379531     0.1080300
H           5.1115785    -1.8693617     0.4357786
H           5.6238761    -0.1188952     0.6636252
16
162_C5H9NO_4-0-2-11 (180,) energy =    -325.9112258
N           1.2867498    -0.9134698    -0.2685292
H           1.1719663     0.0765560    -0.1086494
C           2.5504267    -1.4037780    -0.4582419
O           2.7813606    -2.5940787    -0.6574609
C           0.1070526    -1.7578382    -0.2856765
H           0.4438722    -2.7782831    -0.4733730
H          -0.4212391    -1.7256027     0.6750807
H          -0.5870198    -1.4572095    -1.0799902
C           4.8417358    -0.6023144    -1.3093218
H           5.3017118     0.2753335    -1.7544469
H           4.7971086    -1.4813597    -1.9443903
C           3.6420079    -0.3777787    -0.4058699
H           3.3430510     0.6525331    -0.2248589
C           4.9779362    -0.8223244     0.1628040
H           5.0236920    -1.8488677     0.5123628
H           5.5342119    -0.1002407     0.7536562
