25
052_C12H10N2O_20-0-2-9 (-165,) energy =    -648.0493690
N           1.7355549    -1.0989781    -0.8886933
H           1.7620001    -0.1184072    -1.1565746
C           2.7767588    -1.4540021    -0.0762546
C           5.3791127     1.7895203     0.7589123
H           6.0124092     2.6511701     0.9463541
C           5.6679888     0.5427643     1.3139966
H           6.5391345     0.4080723     1.9491819
C           4.8210318    -0.5284261     1.0396891
H           4.9867452    -1.5230227     1.4371801
C           3.7132906    -0.3030479     0.2193712
N           3.4272995     0.8931010    -0.3193952
C           4.2482806     1.9125286    -0.0512628
H           3.9903768     2.8685975    -0.5025491
O           2.9678524    -2.5652050     0.4093732
C          -1.9009569    -3.0569967    -1.7181912
H          -2.8443450    -3.5480390    -1.9391774
C          -0.8860805    -3.7435297    -1.0500362
H          -1.0381145    -4.7766823    -0.7485028
C           0.3331438    -3.1309339    -0.7606985
H           1.1209707    -3.6634512    -0.2462176
C           0.5388702    -1.7955116    -1.1418251
C          -0.4790320    -1.1036437    -1.8182274
H          -0.3178711    -0.0702087    -2.1180796
C          -1.6882639    -1.7313473    -2.1022875
H          -2.4657044    -1.1802435    -2.6247275
25
052_C12H10N2O_20-0-2-9 (-150,) energy =    -648.0467991
N           1.8849694    -1.2254963    -1.1309116
H           1.9129492    -0.2424763    -1.3929982
C           2.8865749    -1.5401704    -0.2467647
C           5.2505912     1.8083875     0.8429128
H           5.8210279     2.6968831     1.0955564
C           5.5477908     0.5693859     1.4109128
H           6.3630191     0.4680637     2.1219661
C           4.7831477    -0.5373100     1.0497095
H           4.9612444    -1.5282508     1.4509475
C           3.7431741    -0.3532744     0.1353699
N           3.4503068     0.8348426    -0.4169580
C           4.1942166     1.8880532    -0.0669884
H           3.9331317     2.8364406    -0.5323587
O           3.0769979    -2.6430250     0.2550616
C          -1.9323187    -2.9642579    -1.5527459
H          -2.9210327    -3.3991236    -1.6680748
C          -0.9014480    -3.6974212    -0.9630657
H          -1.0863629    -4.7111827    -0.6173614
C           0.3756054    -3.1567652    -0.8135426
H           1.1773765    -3.7265898    -0.3639377
C           0.6230873    -1.8460774    -1.2496732
C          -0.4094274    -1.1086103    -1.8501511
H          -0.2154582    -0.0954352    -2.1960455
C          -1.6765070    -1.6658422    -1.9983664
H          -2.4656653    -1.0801431    -2.4623536
25
052_C12H10N2O_20-0-2-9 (-135,) energy =    -648.0424408
N           2.0284510    -1.3643490    -1.3609700
H           2.0621197    -0.3811530    -1.6256021
C           3.0085884    -1.6379927    -0.4283578
C           5.0723057     1.8124905     0.9200206
H           5.5635673     2.7265326     1.2391362
C           5.3940071     0.5798000     1.4884178
H           6.1492569     0.5092030     2.2662667
C           4.7327242    -0.5608599     1.0397003
H           4.9368360    -1.5489401     1.4355298
C           3.7641177    -0.4156213     0.0431936
N           3.4493805     0.7660468    -0.5106948
C           4.0962520     1.8520795    -0.0780278
H           3.8205354     2.7942946    -0.5474294
O           3.2185866    -2.7373190     0.0691608
C          -1.9265463    -2.8370870    -1.3775416
H          -2.9487615    -3.2043901    -1.3873820
C          -0.8981248    -3.6219686    -0.8534924
H          -1.1182408    -4.6084687    -0.4537276
C           0.4206269    -3.1679687    -0.8426505
H           1.2214933    -3.7798153    -0.4486868
C           0.7143509    -1.8924168    -1.3467233
C          -0.3148318    -1.1043850    -1.8832362
H          -0.0859615    -0.1190808    -2.2837682
C          -1.6249803    -1.5763461    -1.8962470
H          -2.4119360    -0.9522382    -2.3114057
25
052_C12H10N2O_20-0-2-9 (-120,) energy =    -648.0364422
N           2.1568251    -1.5168352    -1.5711739
H           2.2005011    -0.5408502    -1.8623661
C           3.1309020    -1.7439322    -0.6059142
C           4.8512096     1.7902361     0.9821318
H           5.2520641     2.7245848     1.3628816
C           5.2102148     0.5651906     1.5447425
H           5.9043562     0.5211867     2.3793873
C           4.6665307    -0.6026211     1.0155063
H           4.9064913    -1.5862712     1.4021535
C           3.7697529    -0.4911785    -0.0506669
N           3.4216375     0.6827757    -0.6009773
C           3.9580193     1.7953349    -0.0915511
H           3.6588631     2.7309077    -0.5598803
O           3.3838755    -2.8402473    -0.1275460
C          -1.8856187    -2.6883766    -1.1956969
H          -2.9278738    -2.9807390    -1.1053822
C          -0.8724082    -3.5287090    -0.7304504
H          -1.1245859    -4.4835532    -0.2764402
C           0.4697133    -3.1699672    -0.8510708
H           1.2588487    -3.8268974    -0.5068748
C           0.8061234    -1.9359346    -1.4253289
C          -0.2073432    -1.0926310    -1.9015981
H           0.0531271    -0.1384422    -2.3544945
C          -1.5434558    -1.4705664    -1.7861911
H          -2.3186117    -0.8048127    -2.1565138
25
052_C12H10N2O_20-0-2-9 (-105,) energy =    -648.0293612
N           2.2816791    -1.6663327    -1.7725723
H           2.3464199    -0.7004910    -2.0950519
C           3.2554994    -1.8410850    -0.7766931
C           4.5976711     1.7504147     1.0290177
H           4.9000275     2.6981107     1.4639052
C           5.0056038     0.5370067     1.5833429
H           5.6394351     0.5158845     2.4654929
C           4.5894352    -0.6489211     0.9835669
H           4.8747040    -1.6244857     1.3598433
C           3.7635699    -0.5674104    -0.1414550
N           3.3703318     0.5956778    -0.6846637
C           3.7858987     1.7265962    -0.1074983
H           3.4538788     2.6532564    -0.5714272
O           3.5723397    -2.9310617    -0.3307872
C          -1.7959590    -2.5088355    -1.0199264
H          -2.8450328    -2.7208475    -0.8344894
C          -0.8091771    -3.4055304    -0.6049181
H          -1.0889530    -4.3238666    -0.0951417
C           0.5392403    -3.1488200    -0.8491121
H           1.3068479    -3.8517749    -0.5466881
C           0.9129058    -1.9634994    -1.4969729
C          -0.0735874    -1.0630998    -1.9196348
H           0.2144241    -0.1440207    -2.4249899
C          -1.4191738    -1.3398262    -1.6828680
H          -2.1738915    -0.6314339    -2.0144454
25
052_C12H10N2O_20-0-2-9 (-90,) energy =    -648.0220938
N           2.3886816    -1.8083247    -1.9559065
H           2.4690377    -0.8665175    -2.3411505
C           3.3766262    -1.9209205    -0.9419784
C           4.3220098     1.6870979     1.0674706
H           4.5223873     2.6380300     1.5515671
C           4.7996604     0.4893086     1.5993207
H           5.3870213     0.4836927     2.5132766
C           4.5136298    -0.7006652     0.9349533
H           4.8601145    -1.6640027     1.2910142
C           3.7413935    -0.6403469    -0.2293449
N           3.2825533     0.5081314    -0.7522863
C           3.5746084     1.6436036    -0.1120888
H           3.1932355     2.5591549    -0.5598647
O           3.7992866    -2.9934881    -0.5555242
C          -1.6697243    -2.3204463    -0.8521830
H          -2.7126832    -2.4538916    -0.5795359
C          -0.7102056    -3.2548994    -0.4561933
H          -1.0051292    -4.1241753     0.1259511
C           0.6281864    -3.0972097    -0.8123699
H           1.3716284    -3.8339040    -0.5269109
C           1.0234999    -1.9777015    -1.5572042
C           0.0648000    -1.0378527    -1.9553581
H           0.3695828    -0.1657425    -2.5289724
C          -1.2739418    -1.2159263    -1.6079044
H          -2.0077123    -0.4793200    -1.9248850
25
052_C12H10N2O_20-0-2-9 (-75,) energy =    -648.0236377
N           2.3409940    -1.4763660    -2.0453755
H           2.5364057    -1.9745420    -2.9120882
C           3.4656107    -1.6704758    -1.2252150
C           4.2940573     1.2509340     1.7229933
H           4.4739333     2.0337532     2.4538372
C           5.1867306     0.1922689     1.5614843
H           6.0861582     0.1254925     2.1673547
C           4.9034856    -0.7811167     0.6065965
H           5.5587240    -1.6256100     0.4268539
C           3.7360713    -0.6474437    -0.1542690
N           2.8669284     0.3625855    -0.0012321
C           3.1503728     1.2865386     0.9193794
H           2.4297322     2.0961781     1.0208560
O           4.3153777    -2.4977078    -1.5240233
C          -1.7173868    -2.1272722    -1.0338629
H          -2.7623137    -2.2961404    -0.7905073
C          -0.7446951    -2.1596357    -0.0338264
H          -1.0291173    -2.3595798     0.9959462
C           0.6007611    -1.9545950    -0.3375334
H           1.3446235    -2.0013724     0.4501008
C           0.9879293    -1.6978362    -1.6586374
C           0.0104551    -1.6588206    -2.6630523
H           0.3073155    -1.4468645    -3.6874772
C          -1.3290542    -1.8795724    -2.3518661
H          -2.0718395    -1.8504317    -3.1446790
25
052_C12H10N2O_20-0-2-9 (-60,) energy =    -648.0277622
N           2.4238124    -1.6819105    -2.0861421
H           2.5943619    -2.2425724    -2.9178307
C           3.5645591    -1.7351189    -1.2894629
C           4.1144545     1.2447046     1.6688646
H           4.2242650     2.0399853     2.4001609
C           5.0389585     0.2044487     1.5851390
H           5.8944256     0.1659355     2.2539298
C           4.8465990    -0.7854982     0.6246292
H           5.5345591    -1.6135212     0.4985314
C           3.7301387    -0.6914019    -0.2143489
N           2.8331669     0.3025485    -0.1393663
C           3.0323653     1.2461490     0.7838440
H           2.2918015     2.0433628     0.8190529
O           4.4935992    -2.4799089    -1.5780184
C          -1.6318876    -1.9888778    -0.9270688
H          -2.6775046    -2.0737832    -0.6454308
C          -0.6276606    -2.2128563     0.0160304
H          -0.8882714    -2.4805643     1.0366043
C           0.7169712    -2.1197758    -0.3406095
H           1.4880646    -2.3262623     0.3943760
C           1.0705224    -1.7736950    -1.6503759
C           0.0630623    -1.5434526    -2.5961655
H           0.3395188    -1.2630638    -3.6092892
C          -1.2780873    -1.6600958    -2.2370761
H          -2.0482353    -1.4825507    -2.9829857
25
052_C12H10N2O_20-0-2-9 (-45,) energy =    -648.0302918
N           2.4388994    -1.8133334    -2.1246697
H           2.5959794    -2.3906778    -2.9457448
C           3.6105110    -1.7226560    -1.3941987
C           3.9719921     1.2195846     1.6312751
H           4.0344685     2.0043668     2.3793222
C           4.9209018     0.1998071     1.5689339
H           5.7491266     0.1676490     2.2715279
C           4.7902613    -0.7760326     0.5840331
H           5.5043269    -1.5833705     0.4691337
C           3.7032828    -0.6949619    -0.2940697
N           2.7855693     0.2810523    -0.2426823
C           2.9293488     1.2152087     0.7007489
H           2.1742353     1.9993120     0.7144252
O           4.6032205    -2.3626499    -1.7254266
C          -1.5976029    -1.8824475    -0.8752231
H          -2.6395689    -1.9090337    -0.5693240
C          -0.5863993    -2.1722408     0.0428066
H          -0.8389702    -2.4335799     1.0670304
C           0.7519553    -2.1544545    -0.3461111
H           1.5290519    -2.4130334     0.3658656
C           1.0935433    -1.8141961    -1.6607303
C           0.0800741    -1.5220400    -2.5815363
H           0.3493551    -1.2506937    -3.5988526
C          -1.2572877    -1.5646728    -2.1912207
H          -2.0337190    -1.3379132    -2.9169614
25
052_C12H10N2O_20-0-2-9 (-30,) energy =    -648.0313783
N           2.4517746    -1.9235637    -2.0971634
H           2.5990527    -2.4815275    -2.9317811
C           3.6463862    -1.6941730    -1.4498649
C           3.9082454     1.1776687     1.6525958
H           3.9459121     1.9446485     2.4205099
C           4.8810760     0.1815331     1.5740345
H           5.7036436     0.1510697     2.2833252
C           4.7831409    -0.7708191     0.5628994
H           5.5200906    -1.5548614     0.4319547
C           3.6993674    -0.6960444    -0.3197632
N           2.7606534     0.2586031    -0.2548628
C           2.8759308     1.1739923     0.7112541
H           2.1050122     1.9423214     0.7341767
O           4.6788995    -2.2285830    -1.8437530
C          -1.5783039    -1.8027637    -0.8422674
H          -2.6195401    -1.7836473    -0.5332652
C          -0.5756127    -2.1089648     0.0803723
H          -0.8347734    -2.3373887     1.1107900
C           0.7606083    -2.1499798    -0.3123750
H           1.5318182    -2.4212155     0.4012333
C           1.1103208    -1.8508273    -1.6350851
C           0.1056983    -1.5461280    -2.5609229
H           0.3807053    -1.3112858    -3.5858148
C          -1.2313049    -1.5296409    -2.1662220
H          -2.0013535    -1.2924906    -2.8953950
25
052_C12H10N2O_20-0-2-9 (-15,) energy =    -648.0313746
N           2.4616033    -2.0338331    -2.0512441
H           2.6039566    -2.5657252    -2.9029015
C           3.6650705    -1.6686522    -1.4936731
C           3.8795296     1.1434128     1.6667496
H           3.9041250     1.8945169     2.4507168
C           4.8853829     0.1843132     1.5493542
H           5.7214213     0.1681140     2.2432039
C           4.8036814    -0.7481093     0.5185961
H           5.5675587    -1.4998511     0.3563323
C           3.7001789    -0.6956332    -0.3411783
N           2.7311239     0.2246489    -0.2402536
C           2.8322562     1.1240527     0.7428556
H           2.0365498     1.8652580     0.7940284
O           4.7161859    -2.1051386    -1.9545821
C          -1.5756914    -1.7486880    -0.8525389
H          -2.6191465    -1.6901177    -0.5561774
C          -0.5930210    -2.0609799     0.0898798
H          -0.8704893    -2.2543660     1.1226904
C           0.7451003    -2.1523031    -0.2863390
H           1.5017141    -2.4272952     0.4412051
C           1.1178897    -1.8976493    -1.6119829
C           0.1335552    -1.5899434    -2.5578619
H           0.4257670    -1.3931996    -3.5860890
C          -1.2068078    -1.5219105    -2.1790438
H          -1.9615093    -1.2819321    -2.9231649
25
052_C12H10N2O_20-0-2-9 (0,) energy =    -648.0305726
N           2.4641408    -2.1362519    -1.9740097
H           2.6036544    -2.6466664    -2.8394352
C           3.6637501    -1.6452138    -1.5099983
C           3.8858785     1.1171756     1.6939328
H           3.9105765     1.8536092     2.4916902
C           4.9330369     0.2146176     1.5075322
H           5.8021612     0.2294425     2.1594952
C           4.8494735    -0.7006872     0.4619670
H           5.6430868    -1.4067336     0.2464081
C           3.7026073    -0.6918790    -0.3412742
N           2.6944336     0.1747875    -0.1744257
C           2.7972732     1.0604805     0.8213563
H           1.9682138     1.7583082     0.9254706
O           4.7141801    -1.9986727    -2.0386695
C          -1.5938050    -1.7027751    -0.8924781
H          -2.6425340    -1.6089476    -0.6250430
C          -0.6446226    -2.0199203     0.0825204
H          -0.9540867    -2.1811461     1.1117273
C           0.6992971    -2.1559374    -0.2568151
H           1.4312857    -2.4327414     0.4946967
C           1.1121867    -1.9425175    -1.5774530
C           0.1617756    -1.6324165    -2.5560066
H           0.4844087    -1.4707095    -3.5813638
C          -1.1856709    -1.5177218    -2.2136389
H          -1.9143803    -1.2754166    -2.9824726
25
052_C12H10N2O_20-0-2-9 (15,) energy =    -648.0313746
N           0.7081108    -1.0589392     1.1175013
H          -0.0137488    -1.1100937     1.8279938
C           1.9149859    -0.6963472     1.6693607
C           5.2159889     0.3984677    -0.7488195
H           6.0315888     0.7094829    -1.3949125
C           5.4563598    -0.1358320     0.5169334
H           6.4712810    -0.2522846     0.8870929
C           4.3695293    -0.5089610     1.3031538
H           4.4886776    -0.9028068     2.3059726
C           3.0818131    -0.3529110     0.7767250
N           2.8397126     0.1639592    -0.4358775
C           3.8918445     0.5341684    -1.1718342
H           3.6644251     0.9600198    -2.1475823
O           2.0365128    -0.6161860     2.8886122
C          -0.5491355    -2.3181391    -2.7103519
H          -0.8885047    -2.6506439    -3.6872503
C           0.6723237    -2.7642861    -2.2001536
H           1.2845003    -3.4528569    -2.7765180
C           1.1064837    -2.3534990    -0.9418857
H           2.0400465    -2.7277780    -0.5347231
C           0.3316008    -1.4601006    -0.1918394
C          -0.8946498    -1.0167873    -0.6998357
H          -1.4941644    -0.3237636    -0.1153293
C          -1.3336505    -1.4494300    -1.9507568
H          -2.2877860    -1.0977054    -2.3338905
25
052_C12H10N2O_20-0-2-9 (30,) energy =    -648.0313782
N           0.6856387    -0.9439982     1.0944343
H          -0.0250390    -1.0246737     1.8141691
C           1.9260783    -0.7379470     1.6578458
C           5.2146847     0.4516536    -0.7321650
H           6.0269712     0.7878217    -1.3697653
C           5.4622823    -0.1343823     0.5088395
H           6.4792237    -0.2677018     0.8675917
C           4.3795794    -0.5393966     1.2851111
H           4.5035017    -0.9776399     2.2687318
C           3.0888483    -0.3565244     0.7752808
N           2.8400239     0.2080775    -0.4146937
C           3.8879207     0.6051381    -1.1419446
H           3.6556088     1.0685965    -2.0992456
O           2.0689094    -0.7761532     2.8764875
C          -0.5677744    -2.3714669    -2.6768750
H          -0.9065646    -2.7440880    -3.6393799
C           0.6505670    -2.7999423    -2.1453577
H           1.2612755    -3.5149731    -2.6902064
C           1.0842176    -2.3377394    -0.9045083
H           2.0157267    -2.6997201    -0.4815896
C           0.3114070    -1.4105298    -0.1942735
C          -0.9108415    -0.9825162    -0.7253170
H          -1.5064435    -0.2605298    -0.1729024
C          -1.3495442    -1.4669390    -1.9568218
H          -2.3009219    -1.1270650    -2.3571519
25
052_C12H10N2O_20-0-2-9 (45,) energy =    -648.0302918
N           0.6911124    -0.8414454     1.0341007
H          -0.0092994    -0.9419164     1.7631371
C           1.9498641    -0.8000804     1.6071005
C           5.2588425     0.5024106    -0.6938753
H           6.0758942     0.8674699    -1.3091111
C           5.4957164    -0.1222384     0.5300433
H           6.5090988    -0.2581949     0.8977417
C           4.4067946    -0.5649851     1.2767484
H           4.5215646    -1.0397082     2.2444024
C           3.1210138    -0.3722926     0.7583080
N           2.8824149     0.2268832    -0.4170672
C           3.9358228     0.6550088    -1.1173705
H           3.7123155     1.1441887    -2.0639185
O           2.0916239    -0.9674433     2.8140253
C          -0.6120581    -2.4291051    -2.6591356
H          -0.9636587    -2.8392350    -3.6015505
C           0.6117426    -2.8380993    -2.1259044
H           1.2147120    -3.5755971    -2.6490186
C           1.0625698    -2.3272388    -0.9099503
H           1.9994195    -2.6753778    -0.4871370
C           0.2995912    -1.3722517    -0.2269238
C          -0.9271064    -0.9605344    -0.7617723
H          -1.5127793    -0.2133685    -0.2328061
C          -1.3823119    -1.4932618    -1.9666320
H          -2.3374102    -1.1663945    -2.3690130
25
052_C12H10N2O_20-0-2-9 (60,) energy =    -648.0277622
N           0.7442097    -0.7482625     0.9489045
H           0.0471024    -0.8262918     1.6858497
C           2.0028801    -0.8676755     1.5322751
C           5.3736781     0.5427739    -0.6082417
H           6.2064915     0.9358431    -1.1837787
C           5.5751734    -0.0958315     0.6146372
H           6.5757518    -0.2155184     1.0209693
C           4.4674953    -0.5765513     1.3085645
H           4.5539392    -1.0703678     2.2695458
C           3.1990525    -0.3973119     0.7445187
N           2.9948891     0.2117660    -0.4325366
C           4.0656915     0.6704517    -1.0847386
H           3.8703484     1.1648027    -2.0348343
O           2.1170758    -1.1596392     2.7166776
C          -0.6994514    -2.5070010    -2.6160704
H          -1.0866184    -2.9578646    -3.5252829
C           0.5563939    -2.8715953    -2.1282203
H           1.1503958    -3.6148873    -2.6534206
C           1.0547395    -2.3081647    -0.9543000
H           2.0191931    -2.6227145    -0.5691852
C           0.3037865    -1.3474451    -0.2662999
C          -0.9544793    -0.9770348    -0.7583038
H          -1.5305816    -0.2222043    -0.2293403
C          -1.4546642    -1.5610753    -1.9201751
H          -2.4342531    -1.2665215    -2.2871557
25
052_C12H10N2O_20-0-2-9 (75,) energy =    -648.0236376
N           0.7797670    -0.6084807     0.7757593
H           0.0842182    -0.6110294     1.5199081
C           2.0136205    -0.8639895     1.3982041
C           5.5191385     0.5679138    -0.4922583
H           6.3880395     0.9673889    -1.0067739
C           5.6367657    -0.0601119     0.7468830
H           6.6055116    -0.1659212     1.2273454
C           4.4863416    -0.5510094     1.3593093
H           4.5079611    -1.0434027     2.3246572
C           3.2605366    -0.3842527     0.7041493
N           3.1376251     0.2111400    -0.4914196
C           4.2490705     0.6743931    -1.0672958
H           4.1203347     1.1551711    -2.0354973
O           2.0550160    -1.2419740     2.5605793
C          -0.8656416    -2.6005083    -2.5771305
H          -1.3030954    -3.1069960    -3.4325348
C           0.4640478    -2.8319803    -2.2227307
H           1.0683846    -3.5264492    -2.8004805
C           1.0319087    -2.1947719    -1.1199892
H           2.0614779    -2.4008951    -0.8490893
C           0.2691816    -1.2982201    -0.3613232
C          -1.0650408    -1.0602361    -0.7205423
H          -1.6551957    -0.3547079    -0.1405048
C          -1.6274705    -1.7128699    -1.8148928
H          -2.6648140    -1.5194646    -2.0749781
25
052_C12H10N2O_20-0-2-9 (90,) energy =    -648.0220936
N           0.7966181    -0.9220713     0.9229173
H           0.7665975     0.0811992     0.7373888
C           2.1265063    -1.2250973     1.3183461
C           5.1228589     1.2413818    -0.3814104
H           5.8488862     1.8997759    -0.8485161
C           5.5207981     0.0877910     0.2942769
H           6.5720306    -0.1761480     0.3690145
C           4.5458195    -0.7186705     0.8759157
H           4.7883276    -1.6240495     1.4202752
C           3.2059915    -0.3423816     0.7384343
N           2.8136354     0.7691998     0.0954701
C           3.7597569     1.5405191    -0.4470574
H           3.4137810     2.4364496    -0.9586958
O           2.4091001    -2.2196337     1.9582158
C          -0.7433035    -2.8355653    -2.5294857
H          -1.1482078    -3.3239183    -3.4112308
C          -0.1171784    -3.5847784    -1.5308208
H          -0.0351269    -4.6639972    -1.6311509
C           0.3941156    -2.9669536    -0.3906885
H           0.8592666    -3.5491156     0.3977446
C           0.3010322    -1.5754504    -0.2513236
C          -0.3250279    -0.8204612    -1.2508023
H          -0.3940500     0.2598429    -1.1474777
C          -0.8483754    -1.4521344    -2.3785347
H          -1.3330051    -0.8538942    -3.1458200
25
052_C12H10N2O_20-0-2-9 (105,) energy =    -648.0293611
N           0.9157415    -0.9059499     0.6976286
H           0.9322027     0.0867781     0.4625547
C           2.2083751    -1.2581691     1.1167325
C           5.2629432     1.3802308    -0.1750728
H           6.0070298     2.0820611    -0.5389960
C           5.6357106     0.1862717     0.4426270
H           6.6842534    -0.0658442     0.5744404
C           4.6394833    -0.6768103     0.8920264
H           4.8602891    -1.6166149     1.3846763
C           3.3056321    -0.3123893     0.6861221
N           2.9377034     0.8367249     0.0973479
C           3.9023586     1.6620499    -0.3186588
H           3.5741167     2.5867324    -0.7891787
O           2.4742558    -2.3197932     1.6548202
C          -0.9926683    -2.9554236    -2.4743957
H          -1.4890048    -3.4748697    -3.2890862
C          -0.3271931    -3.6737331    -1.4788078
H          -0.3058513    -4.7599007    -1.5144796
C           0.3022572    -3.0170354    -0.4222533
H           0.8024889    -3.5716012     0.3632722
C           0.2897866    -1.6164868    -0.3706131
C          -0.3806474    -0.8915458    -1.3643380
H          -0.3936620     0.1953203    -1.3244076
C          -1.0192553    -1.5616035    -2.4066661
H          -1.5339064    -0.9864423    -3.1719646
25
052_C12H10N2O_20-0-2-9 (120,) energy =    -648.0364422
N           1.0406530    -0.8953665     0.4469962
H           1.0725374     0.0872441     0.1773592
C           2.2965019    -1.2794211     0.9024816
C           5.3786300     1.4966985     0.0277313
H           6.1322247     2.2347025    -0.2293819
C           5.7274035     0.2771968     0.6085330
H           6.7668597     0.0408725     0.8184889
C           4.7193543    -0.6321327     0.9190542
H           4.9207541    -1.5944533     1.3751489
C           3.3993103    -0.2849095     0.6186148
N           3.0539552     0.8876457     0.0635982
C           4.0288242     1.7561240    -0.2199257
H           3.7178647     2.6983903    -0.6666494
O           2.5503533    -2.3763152     1.3790565
C          -1.2255932    -3.0552076    -2.3909758
H          -1.8126681    -3.6008290    -3.1241663
C          -0.4915202    -3.7403490    -1.4209620
H          -0.5072279    -4.8268684    -1.3949880
C           0.2567390    -3.0511856    -0.4671812
H           0.8135406    -3.5789211     0.2971683
C           0.2928135    -1.6499216    -0.4978282
C          -0.4493845    -0.9574293    -1.4646308
H          -0.4282911     0.1300472    -1.4842603
C          -1.2030406    -1.6594412    -2.4029985
H          -1.7704443    -1.1091814    -3.1489887
25
052_C12H10N2O_20-0-2-9 (135,) energy =    -648.0424411
N           1.1707591    -0.8940925     0.1837328
H           1.2127119     0.0815162    -0.1061070
C           2.3925829    -1.3007002     0.6794313
C           5.4555574     1.5949979     0.2181230
H           6.2062997     2.3648284     0.0685100
C           5.7867787     0.3575510     0.7705503
H           6.8092208     0.1386997     1.0657731
C           4.7833164    -0.5930723     0.9408807
H           4.9710039    -1.5719496     1.3665872
C           3.4861710    -0.2656233     0.5378017
N           3.1578341     0.9230986     0.0073489
C           4.1272873     1.8300393    -0.1436048
H           3.8299090     2.7840659    -0.5743644
O           2.6383565    -2.4185302     1.1157574
C          -1.4288487    -3.1180167    -2.2873815
H          -2.1018844    -3.6788709    -2.9295741
C          -0.6262104    -3.7783633    -1.3556348
H          -0.6742502    -4.8607278    -1.2684226
C           0.2356346    -3.0709913    -0.5177527
H           0.8494863    -3.5794413     0.2141476
C           0.3129913    -1.6748504    -0.6287825
C          -0.4989065    -1.0065861    -1.5573170
H          -0.4465339     0.0771933    -1.6370735
C          -1.3621386    -1.7264447    -2.3795794
H          -1.9816877    -1.1946747    -3.0968864
25
052_C12H10N2O_20-0-2-9 (150,) energy =    -648.0467989
N           1.3052749    -0.9107807    -0.0870054
H           1.3472046     0.0617092    -0.3837566
C           2.4903615    -1.3262937     0.4662181
C           5.4932717     1.6677254     0.3961371
H           6.2296832     2.4640121     0.3486103
C           5.8102386     0.4181794     0.9292741
H           6.8070291     0.2159360     1.3113504
C           4.8261703    -0.5667525     0.9660273
H           5.0039482    -1.5572650     1.3684495
C           3.5620188    -0.2585988     0.4576801
N           3.2477270     0.9411105    -0.0565820
C           4.1981375     1.8798640    -0.0812517
H           3.9126161     2.8417016    -0.5026243
O           2.7267500    -2.4538200     0.8872128
C          -1.5982684    -3.1570652    -2.1596494
H          -2.3512660    -3.7229545    -2.7006887
C          -0.7300954    -3.7998203    -1.2758218
H          -0.8068254    -4.8735031    -1.1250346
C           0.2377676    -3.0873579    -0.5679608
H           0.9058973    -3.5828500     0.1232911
C           0.3504386    -1.7018683    -0.7607773
C          -0.5260101    -1.0511389    -1.6432799
H          -0.4443326     0.0243002    -1.7867653
C          -1.4913757    -1.7760632    -2.3365109
H          -2.1599681    -1.2574613    -3.0185121
25
052_C12H10N2O_20-0-2-9 (165,) energy =    -648.0493690
N           1.4439184    -0.9366385    -0.3612078
H           1.4855788     0.0354752    -0.6565709
C           2.5858238    -1.3477441     0.2690701
C           5.4997408     1.7223485     0.5406898
H           6.2139599     2.5389527     0.5817687
C           5.7978312     0.4704720     1.0791296
H           6.7574799     0.2865216     1.5542442
C           4.8437252    -0.5410769     0.9986360
H           5.0092575    -1.5355721     1.3964560
C           3.6266249    -0.2548321     0.3761108
N           3.3307481     0.9468130    -0.1447901
C           4.2527648     1.9100037    -0.0594201
H           3.9834483     2.8724190    -0.4900792
O           2.8069280    -2.4756630     0.7003881
C          -1.7358750    -3.1488764    -2.0167965
H          -2.5612469    -3.7056200    -2.4512340
C          -0.8032422    -3.7896177    -1.1998627
H          -0.9018356    -4.8525089    -0.9949661
C           0.2610667    -3.0907860    -0.6303209
H           0.9818496    -3.5859602     0.0054548
C           0.4005027    -1.7184786    -0.8915876
C          -0.5390490    -1.0702316    -1.7097247
H          -0.4339244    -0.0056172    -1.9082614
C          -1.5972281    -1.7820219    -2.2669989
H          -2.3139213    -1.2647468    -2.8993364
25
052_C12H10N2O_20-0-2-9 (180,) energy =    -648.0502116
N           1.5901051    -0.9985003    -0.6306026
H           1.6217684    -0.0224867    -0.9126645
C           2.6810526    -1.3870814     0.0932627
C           5.4643691     1.7629441     0.6612542
H           6.1448298     2.6006098     0.7793736
C           5.7535426     0.5111527     1.2047702
H           6.6724417     0.3483937     1.7612297
C           4.8441485    -0.5279513     1.0223047
H           5.0059853    -1.5241609     1.4173688
C           3.6778066    -0.2675994     0.2993783
N           3.3908678     0.9336710    -0.2274309
C           4.2707792     1.9226330    -0.0458518
H           4.0102286     2.8838778    -0.4844682
O           2.8844961    -2.5079215     0.5520674
C          -1.8318386    -3.1171141    -1.8711031
H          -2.7202178    -3.6494956    -2.1986714
C          -0.8498905    -3.7713732    -1.1258127
H          -0.9727976    -4.8206727    -0.8702311
C           0.2975504    -3.1048109    -0.6962646
H           1.0581940    -3.6115392    -0.1188388
C           0.4668905    -1.7491781    -1.0205872
C          -0.5198997    -1.0883703    -1.7705423
H          -0.3886814    -0.0378750    -2.0218680
C          -1.6586554    -1.7688418    -2.1910591
H          -2.4117969    -1.2415499    -2.7705414
