25
052_C12H10N2O_2-0-20-18 (-165,) energy =    -648.0498092
N           1.6085655    -1.1938650    -0.3422244
H           1.5132476    -0.7370215     0.5607458
C           2.8046467    -0.9373811    -0.9508868
C           5.3718700     1.4477815     1.4378509
H           5.9917025     2.0610712     2.0846259
C           5.8320306     1.0098981     0.1958703
H           6.8267346     1.2755185    -0.1512807
C           4.9945733     0.2250371    -0.5932247
H           5.2876011    -0.1486042    -1.5675210
C           3.7255466    -0.0888097    -0.1018020
N           3.2734061     0.3288302     1.0915966
C           4.0858474     1.0805368     1.8399488
H           3.6917025     1.4033995     2.8015638
O           3.1520392    -1.3350316    -2.0592918
C          -1.8580757    -3.1087472    -1.7769457
H          -2.7597825    -3.5980472    -2.1339810
C          -1.8878582    -2.3366215    -0.6138264
H          -2.8139804    -2.2180284    -0.0576801
C          -0.7324535    -1.7073671    -0.1595482
H          -0.7611144    -1.1018288     0.7439320
C           0.4762153    -1.8489828    -0.8603167
C           0.5106770    -2.6227230    -2.0311032
H           1.4391824    -2.7189569    -2.5765849
C          -0.6572271    -3.2421606    -2.4756116
H          -0.6216752    -3.8390951    -3.3832469
25
052_C12H10N2O_2-0-20-18 (-150,) energy =    -648.0486728
N           1.6505541    -1.2999277    -0.2835001
H           1.5699598    -0.8815033     0.6392671
C           2.7882955    -0.9283433    -0.9463639
C           5.3785013     1.4345872     1.4402626
H           6.0050269     2.0387727     2.0891896
C           5.7865313     1.0926707     0.1508944
H           6.7468012     1.4264947    -0.2324518
C           4.9420682     0.3148546    -0.6377575
H           5.1960689     0.0133569    -1.6473730
C           3.7185981    -0.0890202    -0.0986078
N           3.3162605     0.2367398     1.1402709
C           4.1353477     0.9821679     1.8877576
H           3.7820825     1.2293476     2.8869551
O           3.0801826    -1.2324493    -2.0984985
C          -1.8597749    -3.0630287    -1.8059490
H          -2.7712168    -3.5140496    -2.1879298
C          -1.9024586    -2.2239204    -0.6907238
H          -2.8485143    -2.0134556    -0.1990752
C          -0.7344503    -1.6408421    -0.2060724
H          -0.7715025    -0.9780266     0.6557733
C           0.4976510    -1.9056845    -0.8229773
C           0.5449396    -2.7446555    -1.9462727
H           1.4924783    -2.9284797    -2.4341681
C          -0.6346192    -3.3127242    -2.4266395
H          -0.5899630    -3.9616129    -3.2973980
25
052_C12H10N2O_2-0-20-18 (-135,) energy =    -648.0468897
N           1.6872233    -1.3953513    -0.2292540
H           1.6271217    -1.0237326     0.7148689
C           2.7565760    -0.9075525    -0.9342573
C           5.3830942     1.4192030     1.4466066
H           6.0217473     2.0109761     2.0951607
C           5.7255679     1.1787370     0.1158608
H           6.6446006     1.5814040    -0.3009958
C           4.8689401     0.4123072    -0.6707102
H           5.0722978     0.1872442    -1.7113013
C           3.7002948    -0.0825394    -0.0876121
N           3.3605612     0.1458695     1.1910901
C           4.1909184     0.8812059     1.9362392
H           3.8894645     1.0487924     2.9684193
O           2.9807372    -1.1128649    -2.1215508
C          -1.8522884    -3.0241645    -1.8344923
H          -2.7689875    -3.4410197    -2.2420376
C          -1.9027182    -2.1123301    -0.7784098
H          -2.8596087    -1.8102861    -0.3611249
C          -0.7273104    -1.5702839    -0.2624686
H          -0.7664257    -0.8462970     0.5482763
C           0.5147504    -1.9588562    -0.7828585
C           0.5698156    -2.8682718    -1.8474965
H           1.5295168    -3.1446870    -2.2647338
C          -0.6143165    -3.3911987    -2.3657482
H          -0.5650726    -4.0962826    -3.1912857
25
052_C12H10N2O_2-0-20-18 (-120,) energy =    -648.0446579
N           1.5627715    -0.7373501    -0.8331312
H           2.2399471    -0.5590196    -1.5696877
C           2.0810388    -0.5774573     0.4270510
C           5.9565003     1.1454841     0.4221919
H           6.9490518     1.5821592     0.3680263
C           5.3359856     0.9038821     1.6479969
H           5.8373161     1.1499277     2.5800274
C           4.0617431     0.3415285     1.6570327
H           3.5223757     0.1260785     2.5721982
C           3.4601176     0.0445647     0.4320180
N           4.0503513     0.2701467    -0.7525508
C           5.2724504     0.8107093    -0.7483714
H           5.7250896     0.9820940    -1.7231331
O           1.5082996    -0.8685242     1.4695061
C          -1.7293693    -3.2098106    -1.7452619
H          -2.5758272    -3.8483616    -1.9821666
C          -0.4923772    -3.4310251    -2.3535533
H          -0.3684341    -4.2463082    -3.0613329
C           0.5975870    -2.6195321    -2.0412503
H           1.5681847    -2.8027487    -2.4958009
C           0.4458596    -1.5569264    -1.1422151
C          -0.7902796    -1.3390864    -0.5237467
H          -0.8915479    -0.5307523     0.1908871
C          -1.8700145    -2.1677645    -0.8264008
H          -2.8278255    -1.9936147    -0.3435122
25
052_C12H10N2O_2-0-20-18 (-105,) energy =    -648.0424087
N           1.5616465    -0.7329035    -0.8243181
H           2.1813063    -0.4403257    -1.5745854
C           2.1402949    -0.6904962     0.4172489
C           5.9215543     1.2312491     0.4277191
H           6.8873737     1.7247473     0.3779238
C           5.3775661     0.8235363     1.6459391
H           5.9132343     0.9931605     2.5759424
C           4.1349156     0.1944608     1.6498367
H           3.6545177    -0.1502126     2.5583276
C           3.4863401     0.0014512     0.4280919
N           4.0026129     0.3875898    -0.7495546
C           5.1956908     0.9897977    -0.7405694
H           5.5888884     1.2912101    -1.7096301
O           1.6411091    -1.1329419     1.4437052
C          -1.7496125    -3.1875639    -1.7335799
H          -2.6024926    -3.8190407    -1.9669187
C          -0.4796320    -3.5227162    -2.2068052
H          -0.3382348    -4.4191570    -2.8045619
C           0.6176145    -2.7184996    -1.8983765
H           1.6125765    -2.9853724    -2.2449325
C           0.4413787    -1.5555296    -1.1410480
C          -0.8277391    -1.2242752    -0.6581107
H          -0.9476447    -0.3307668    -0.0545494
C          -1.9182737    -2.0417702    -0.9535188
H          -2.9029696    -1.7799485    -0.5759487
25
052_C12H10N2O_2-0-20-18 (-90,) energy =    -648.0411832
N           1.6947886    -0.9616059    -0.8488123
H           2.1125031    -0.3596507    -1.5516940
C           2.3329334    -0.9871133     0.3568762
C           5.7874582     1.4736222     0.4674681
H           6.6615839     2.1173181     0.4460878
C           5.4444350     0.7534015     1.6119750
H           6.0500059     0.8225332     2.5115355
C           4.3117873    -0.0565639     1.5817558
H           3.9861806    -0.6430620     2.4331985
C           3.5671660    -0.1109050     0.4015132
N           3.8885651     0.5782244    -0.7049428
C           4.9778631     1.3518034    -0.6636853
H           5.2135543     1.8981437    -1.5750417
O           1.9775889    -1.6402342     1.3305106
C          -1.8431615    -3.0904117    -1.7405465
H          -2.7533581    -3.6354302    -1.9757388
C          -0.5975424    -3.6876241    -1.9433834
H          -0.5347294    -4.6986304    -2.3366788
C           0.5715019    -2.9886964    -1.6415818
H           1.5458003    -3.4438774    -1.7919981
C           0.4973004    -1.6889891    -1.1328080
C          -0.7496297    -1.0918586    -0.9275244
H          -0.7938715    -0.0836848    -0.5263562
C          -1.9172243    -1.7925202    -1.2314103
H          -2.8842624    -1.3243370    -1.0689178
25
052_C12H10N2O_2-0-20-18 (-75,) energy =    -648.0425483
N           1.7970724    -1.1492851    -0.9549539
H           1.9967140    -0.3132980    -1.4969095
C           2.5071788    -1.2326272     0.2141792
C           5.5656109     1.6899134     0.5200875
H           6.3295558     2.4606453     0.5545697
C           5.4653930     0.7229233     1.5206276
H           6.1549343     0.7213865     2.3603611
C           4.4650943    -0.2415299     1.4248610
H           4.3278188    -1.0198428     2.1667142
C           3.6053298    -0.1974217     0.3251245
N           3.6917187     0.7305179    -0.6413463
C           4.6552599     1.6508898    -0.5381360
H           4.7006022     2.3901059    -1.3356401
O           2.3206063    -2.0637387     1.0936156
C          -1.8535019    -3.1157039    -1.7401906
H          -2.7911444    -3.6196930    -1.9578562
C          -0.6641503    -3.8449675    -1.6769281
H          -0.6728131    -4.9178873    -1.8488651
C           0.5431316    -3.2004451    -1.4100895
H           1.4749762    -3.7547448    -1.3716519
C           0.5599762    -1.8224569    -1.1739024
C          -0.6296891    -1.0899034    -1.2404301
H          -0.6080613    -0.0180333    -1.0614152
C          -1.8324076    -1.7363911    -1.5265588
H          -2.7531752    -1.1613765    -1.5760307
25
052_C12H10N2O_2-0-20-18 (-60,) energy =    -648.0448764
N           1.7874230    -1.1353296    -0.9566214
H           1.9165851    -0.2346925    -1.4094162
C           2.5842441    -1.3058463     0.1472262
C           5.5108292     1.7328270     0.5731682
H           6.2372361     2.5367028     0.6428858
C           5.5251322     0.6636886     1.4691549
H           6.2685980     0.6135982     2.2599213
C           4.5690860    -0.3399521     1.3328466
H           4.5207843    -1.1976246     1.9938836
C           3.6359383    -0.2295695     0.2995438
N           3.6118950     0.7970038    -0.5655008
C           4.5345795     1.7534154    -0.4252826
H           4.4904418     2.5722559    -1.1408145
O           2.5046154    -2.2381490     0.9373927
C          -1.8596022    -3.1015515    -1.7371962
H          -2.7975201    -3.6048752    -1.9546998
C          -0.7013556    -3.8452281    -1.4998387
H          -0.7348626    -4.9307898    -1.5369249
C           0.5087599    -3.2071456    -1.2325420
H           1.4126007    -3.7781108    -1.0547374
C           0.5566931    -1.8094773    -1.1672966
C          -0.6010123    -1.0616221    -1.4118662
H          -0.5563259     0.0240276    -1.3697244
C          -1.8034259    -1.7074755    -1.6981687
H          -2.6972101    -1.1181818    -1.8848821
25
052_C12H10N2O_2-0-20-18 (-45,) energy =    -648.0471236
N           1.7384917    -1.0897483    -0.9053185
H           1.8326330    -0.1575336    -1.2991219
C           2.6200380    -1.3340841     0.1149121
C           5.4851899     1.7542604     0.5981298
H           6.1929418     2.5728659     0.6857759
C           5.5861633     0.6192975     1.4028710
H           6.3808441     0.5311022     2.1385542
C           4.6504396    -0.4005862     1.2471648
H           4.6689438    -1.3085970     1.8387783
C           3.6487788    -0.2389929     0.2873724
N           3.5414753     0.8506468    -0.4897936
C           4.4457263     1.8216884    -0.3321643
H           4.3335141     2.6917510    -0.9761622
O           2.6288585    -2.3346994     0.8229482
C          -1.8648816    -3.0952358    -1.7694605
H          -2.7934852    -3.6061240    -2.0079130
C          -0.7390193    -3.8240592    -1.3802510
H          -0.7883154    -4.9080328    -1.3194392
C           0.4610150    -3.1808593    -1.0810546
H           1.3345491    -3.7437918    -0.7780372
C           0.5296805    -1.7820646    -1.1432771
C          -0.5960991    -1.0484941    -1.5415484
H          -0.5371091     0.0360857    -1.5991117
C          -1.7856346    -1.7041235    -1.8533376
H          -2.6522324    -1.1235262    -2.1581293
25
052_C12H10N2O_2-0-20-18 (-30,) energy =    -648.0488183
N           1.6891821    -1.0650540    -0.8168729
H           1.7569389    -0.1139166    -1.1687104
C           2.6480212    -1.3680736     0.1106515
C           5.4752699     1.7507803     0.6249869
H           6.1708594     2.5784855     0.7236301
C           5.6506801     0.5668487     1.3415390
H           6.4931391     0.4484769     2.0173800
C           4.7272692    -0.4626696     1.1758209
H           4.8026329    -1.4078181     1.7009664
C           3.6622337    -0.2610429     0.2951264
N           3.4838053     0.8754655    -0.3972936
C           4.3766307     1.8554805    -0.2308582
H           4.2057688     2.7637241    -0.8054865
O           2.7328514    -2.4185785     0.7388855
C          -1.8644548    -3.1042187    -1.7949372
H          -2.7824933    -3.6203268    -2.0611827
C          -0.7816204    -3.8133548    -1.2719254
H          -0.8541277    -4.8888115    -1.1325446
C           0.4057101    -3.1666136    -0.9308302
H           1.2426876    -3.7149660    -0.5202440
C           0.5057496    -1.7769719    -1.0976255
C          -0.5784625    -1.0627112    -1.6296011
H          -0.4967333     0.0134673    -1.7664610
C          -1.7542105    -1.7241122    -1.9751250
H          -2.5861114    -1.1564519    -2.3834402
25
052_C12H10N2O_2-0-20-18 (-15,) energy =    -648.0498543
N           1.6372005    -1.0333563    -0.7289808
H           1.6866922    -0.0679900    -1.0432900
C           2.6659788    -1.3831069     0.0992710
C           5.4623333     1.7600426     0.6404356
H           6.1475451     2.5951773     0.7485796
C           5.7008452     0.5392609     1.2718439
H           6.5839418     0.3987537     1.8890149
C           4.7876714    -0.4980290     1.0977870
H           4.9112998    -1.4709924     1.5590360
C           3.6686234    -0.2670472     0.2946373
N           3.4299314     0.9047092    -0.3160590
C           4.3132359     1.8919748    -0.1421380
H           4.0925147     2.8288804    -0.6498342
O           2.8166816    -2.4728140     0.6445233
C          -1.8546638    -3.1127805    -1.8327343
H          -2.7588765    -3.6371074    -2.1284297
C          -0.8192426    -3.7954179    -1.1924024
H          -0.9154536    -4.8587533    -0.9887795
C           0.3501628    -3.1397693    -0.8080360
H           1.1505603    -3.6671427    -0.3077877
C           0.4825824    -1.7653019    -1.0612448
C          -0.5558422    -1.0769355    -1.7091727
H          -0.4509766    -0.0127440    -1.9100246
C          -1.7142930    -1.7475598    -2.0905628
H          -2.5088523    -1.1990957    -2.5894860
25
052_C12H10N2O_2-0-20-18 (0,) energy =    -648.0502117
N           1.5868554    -0.9985601    -0.6323321
H           1.6202630    -0.0236618    -0.9180276
C           2.6782701    -1.3864749     0.0911830
C           5.4637257     1.7630366     0.6501479
H           6.1449783     2.6003720     0.7659182
C           5.7509933     0.5132098     1.1991075
H           6.6688972     0.3516548     1.7575513
C           4.8408782    -0.5257984     1.0195727
H           5.0010890    -1.5206924     1.4185807
C           3.6758302    -0.2670958     0.2940848
N           3.3907101     0.9323515    -0.2379492
C           4.2712218     1.9212379    -0.0591950
H           4.0122380     2.8809926    -0.5019956
O           2.8816140    -2.5065300     0.5519265
C          -1.8369030    -3.1174389    -1.8673499
H          -2.7258175    -3.6497819    -2.1935100
C          -0.8546682    -3.7709723    -1.1218204
H          -0.9779403    -4.8198358    -0.8646638
C           0.2934124    -3.1043542    -0.6940797
H           1.0543939    -3.6103879    -0.1165099
C           0.4630662    -1.7493005    -1.0205858
C          -0.5240133    -1.0891209    -1.7707594
H          -0.3928444    -0.0390378    -2.0238203
C          -1.6633637    -1.7697217    -2.1893828
H          -2.4167166    -1.2429485    -2.7690548
25
052_C12H10N2O_2-0-20-18 (15,) energy =    -648.0498535
N           1.5372115    -0.9684374    -0.5349015
H           1.5548927     0.0157500    -0.7881513
C           2.6847331    -1.3858378     0.0780706
C           5.4600212     1.7680006     0.6624095
H           6.1370381     2.6074474     0.7873963
C           5.7924318     0.4936038     1.1220982
H           6.7423430     0.3144177     1.6181534
C           4.8854915    -0.5468450     0.9349549
H           5.0797184    -1.5602206     1.2666783
C           3.6781825    -0.2649294     0.2918658
N           3.3499707     0.9580404    -0.1549204
C           4.2275976     1.9482277     0.0307831
H           3.9331171     2.9273849    -0.3417994
O           2.9321583    -2.5305928     0.4464680
C          -1.8110701    -3.1267066    -1.9004636
H          -2.6822702    -3.6694020    -2.2560756
C          -0.8898765    -3.7458190    -1.0541389
H          -1.0440484    -4.7768073    -0.7464383
C           0.2329702    -3.0643927    -0.5850935
H           0.9495671    -3.5448974     0.0665264
C           0.4443491    -1.7341703    -0.9807493
C          -0.4827041    -1.1074673    -1.8291679
H          -0.3212322    -0.0750122    -2.1321919
C          -1.6007177    -1.8005542    -2.2840019
H          -2.3074158    -1.3010572    -2.9413691
25
052_C12H10N2O_2-0-20-18 (30,) energy =    -648.0488184
N           1.4886577    -0.9454696    -0.4446039
H           1.4831038     0.0471450    -0.6630193
C           2.6866395    -1.3828491     0.0503689
C           5.4517202     1.7708442     0.6776935
H           6.1248733     2.6111312     0.8171656
C           5.8252793     0.4753763     1.0356414
H           6.8043037     0.2800614     1.4644465
C           4.9212759    -0.5650157     0.8346081
H           5.1460351    -1.5942682     1.0893325
C           3.6756061    -0.2616441     0.2806681
N           3.3077418     0.9815059    -0.0688992
C           4.1829199     1.9714122     0.1296387
H           3.8562341     2.9673867    -0.1629555
O           2.9721965    -2.5463016     0.3154276
C          -1.7866809    -3.1412656    -1.9255588
H          -2.6408899    -3.6934085    -2.3070200
C          -0.9371162    -3.7190034    -0.9803528
H          -1.1315051    -4.7258456    -0.6201127
C           0.1600348    -3.0214174    -0.4763678
H           0.8216685    -3.4709384     0.2516328
C           0.4252314    -1.7247908    -0.9425523
C          -0.4309053    -1.1389561    -1.8872883
H          -0.2291856    -0.1303438    -2.2416682
C          -1.5285937    -1.8444018    -2.3737481
H          -2.1808315    -1.3779790    -3.1072705
25
052_C12H10N2O_2-0-20-18 (45,) energy =    -648.0471237
N           1.4415927    -0.9129424    -0.3544080
H           1.4121798     0.0884340    -0.5257313
C           2.6832118    -1.3600765     0.0146651
C           5.4386591     1.7892473     0.7008684
H           6.1078135     2.6294282     0.8591291
C           5.8511168     0.4783749     0.9405080
H           6.8575942     0.2705036     1.2930884
C           4.9501425    -0.5607902     0.7205049
H           5.2039182    -1.6015841     0.8853666
C           3.6683162    -0.2407373     0.2675863
N           3.2628433     1.0172565     0.0312613
C           4.1356350     2.0056923     0.2472923
H           3.7783917     3.0140778     0.0476413
O           3.0008695    -2.5346602     0.1632079
C          -1.7625013    -3.1419394    -1.9414700
H          -2.5991980    -3.7041466    -2.3464848
C          -0.9998288    -3.6673584    -0.8962463
H          -1.2455179    -4.6412387    -0.4811318
C           0.0701774    -2.9514278    -0.3616074
H           0.6633065    -3.3574452     0.4477820
C           0.4029556    -1.7006528    -0.9001882
C          -0.3656725    -1.1670791    -1.9435481
H          -0.1118533    -0.1917307    -2.3526743
C          -1.4427351    -1.8855986    -2.4590246
H          -2.0290780    -1.4619253    -3.2699987
25
052_C12H10N2O_2-0-20-18 (60,) energy =    -648.0448771
N           1.4180370    -0.9189673    -0.2824503
H           1.3536312     0.0902678    -0.3828677
C           2.6959865    -1.3605160    -0.0503508
C           5.4250649     1.7864430     0.7444745
H           6.0856026     2.6267645     0.9350608
C           5.8771359     0.4706525     0.8462268
H           6.9069164     0.2589194     1.1205842
C           4.9853012    -0.5681103     0.5900882
H           5.2691892    -1.6125698     0.6486143
C           3.6722709    -0.2429794     0.2423524
N           3.2283972     1.0199231     0.1387563
C           4.0932026     2.0078415     0.3874899
H           3.7049477     3.0203911     0.2957909
O           3.0463490    -2.5340289    -0.0418227
C          -1.7395394    -3.1576693    -1.9537178
H          -2.5644040    -3.7237342    -2.3774151
C          -1.0801097    -3.6222274    -0.8134375
H          -1.3942570    -4.5505154    -0.3438399
C          -0.0291952    -2.8954147    -0.2563772
H           0.4817262    -3.2466414     0.6325393
C           0.3917118    -1.7069048    -0.8648418
C          -0.2719707    -1.2351737    -2.0034352
H           0.0521765    -0.3063523    -2.4667290
C          -1.3353579    -1.9585263    -2.5426772
H          -1.8432616    -1.5851577    -3.4278775
25
052_C12H10N2O_2-0-20-18 (75,) energy =    -648.0425481
N           1.4225074    -0.9285257    -0.2635958
H           1.3126199     0.0813862    -0.2435827
C           2.7240900    -1.3452096    -0.1637880
C           5.4061302     1.7876989     0.8281629
H           6.0523610     2.6243067     1.0757793
C           5.9018405     0.4860616     0.7496899
H           6.9525605     0.2819154     0.9365737
C           5.0263022    -0.5480987     0.4272461
H           5.3434460    -1.5814634     0.3465134
C           3.6849733    -0.2335420     0.1980879
N           3.1988000     1.0159702     0.2684098
C           4.0487337     1.9997719     0.5781460
H           3.6262160     3.0015524     0.6273402
O           3.1082425    -2.4974324    -0.3181422
C          -1.7394555    -3.1696536    -1.9339581
H          -2.5639372    -3.7368476    -2.3571783
C          -1.1976531    -3.5337139    -0.6993148
H          -1.6022290    -4.3838052    -0.1567063
C          -0.1476855    -2.8007402    -0.1474428
H           0.2723050    -3.0662516     0.8170261
C           0.3866179    -1.7145444    -0.8471061
C          -0.1568877    -1.3459038    -2.0820567
H           0.2596184    -0.4967585    -2.6176845
C          -1.2199089    -2.0711489    -2.6208951
H          -1.6370483    -1.7799211    -3.5811315
25
052_C12H10N2O_2-0-20-18 (90,) energy =    -648.0411783
N           1.4570107    -0.8706553    -0.4290528
H           1.2841146     0.0741610    -0.1001385
C           2.7647229    -1.2595526    -0.4298953
C           5.3901967     1.7255277     1.0524684
H           6.0205961     2.5207867     1.4385354
C           5.9295183     0.5045444     0.6468156
H           6.9991248     0.3236827     0.7095563
C           5.0727717    -0.4795842     0.1595368
H           5.4221351    -1.4502890    -0.1731012
C           3.7062886    -0.1980677     0.0992025
N           3.1774928     0.9737134     0.4864806
C           4.0097110     1.9102147     0.9522520
H           3.5527311     2.8493615     1.2585445
O           3.1776140    -2.3489599    -0.8086502
C          -1.7582377    -3.2199479    -1.8368906
H          -2.5903407    -3.8187593    -2.1972700
C          -1.3501905    -3.3184505    -0.5053221
H          -1.8629655    -3.9943109     0.1736515
C          -0.2825735    -2.5495098    -0.0413324
H           0.0456834    -2.6178565     0.9914339
C           0.3826256    -1.6808851    -0.9110942
C          -0.0242066    -1.5836743    -2.2448948
H           0.5035815    -0.9088128    -2.9122745
C          -1.0935326    -2.3522944    -2.7055448
H          -1.4054331    -2.2744380    -3.7435245
25
052_C12H10N2O_2-0-20-18 (105,) energy =    -648.0424087
N           1.4550949    -0.7140199    -0.6608370
H           1.2836844     0.0366375     0.0021974
C           2.7729626    -1.0786118    -0.7527523
C           5.3793902     1.5668246     1.2967878
H           6.0041117     2.2683490     1.8412305
C           5.9359933     0.5288652     0.5491092
H           7.0137037     0.4010123     0.4960896
C           5.0859478    -0.3417348    -0.1287092
H           5.4491677    -1.1703997    -0.7256311
C           3.7084500    -0.1335489    -0.0299152
N           3.1630767     0.8604615     0.6891037
C           3.9888497     1.6891168     1.3353310
H           3.5181963     2.4846509     1.9099092
O           3.1952061    -2.0486337    -1.3686382
C          -1.7199125    -3.2868435    -1.7176275
H          -2.5368199    -3.9492374    -1.9906004
C          -1.4519078    -3.0222288    -0.3732779
H          -2.0548768    -3.4824211     0.4049004
C          -0.3963643    -2.1807087    -0.0218130
H          -0.1683398    -1.9878900     1.0232219
C           0.3755966    -1.5737049    -1.0181635
C           0.1148229    -1.8457346    -2.3641211
H           0.7338645    -1.3848876    -3.1266338
C          -0.9297740    -2.7026218    -2.7096688
H          -1.1286914    -2.9108605    -3.7574299
25
052_C12H10N2O_2-0-20-18 (120,) energy =    -648.0446576
N           1.4475836    -0.7130254    -0.6545874
H           1.2922850    -0.0507642     0.1005225
C           2.7737177    -1.0016840    -0.8554956
C           5.3746247     1.5049266     1.3662130
H           5.9986519     2.1663658     1.9593844
C           5.9325581     0.5848882     0.4783375
H           7.0103086     0.5114142     0.3616718
C           5.0838261    -0.2389393    -0.2571160
H           5.4485975    -0.9761249    -0.9630781
C           3.7060814    -0.1046140    -0.0714836
N           3.1596645     0.7751654     0.7828787
C           3.9840391     1.5606389     1.4822874
H           3.5125327     2.2637193     2.1662379
O           3.2030796    -1.8691409    -1.6055719
C          -1.7223732    -3.2955097    -1.6865041
H          -2.5400787    -3.9607989    -1.9493871
C          -1.5529629    -2.8817661    -0.3639162
H          -2.2333332    -3.2278642     0.4095950
C          -0.4968809    -2.0375032    -0.0234262
H          -0.3484708    -1.7312064     1.0092429
C           0.3771643    -1.5732753    -1.0138657
C           0.2153322    -1.9939869    -2.3385510
H           0.9121404    -1.6506368    -3.0941678
C          -0.8314097    -2.8544993    -2.6671475
H          -0.9526935    -3.1777023    -3.6975537
25
052_C12H10N2O_2-0-20-18 (135,) energy =    -648.0468898
N           1.4591729    -0.7641124    -0.6012849
H           1.3170709    -0.1654898     0.2077125
C           2.7826113    -0.9560557    -0.9012659
C           5.3714156     1.4772151     1.4158163
H           5.9911989     2.1162941     2.0372585
C           5.9271884     0.6671268     0.4255349
H           7.0001810     0.6595941     0.2547840
C           5.0829495    -0.1321219    -0.3416706
H           5.4477398    -0.7850730    -1.1261239
C           3.7110823    -0.0860309    -0.0831500
N           3.1671204     0.6879925     0.8694809
C           3.9870668     1.4512701     1.5978789
H           3.5169164     2.0678859     2.3614558
O           3.2154722    -1.7228975    -1.7537032
C          -1.7559805    -3.2653438    -1.6802587
H          -2.5885822    -3.9083696    -1.9513176
C          -1.6549285    -2.7540413    -0.3850320
H          -2.4057644    -3.0002562     0.3610405
C          -0.5816763    -1.9373553    -0.0347466
H          -0.4922373    -1.5531704     0.9788631
C           0.3883629    -1.6016689    -0.9891698
C           0.2949527    -2.1187066    -2.2882473
H           1.0610389    -1.8800007    -3.0146304
C          -0.7751786    -2.9479322    -2.6219555
H          -0.8423119    -3.3454327    -3.6312054
25
052_C12H10N2O_2-0-20-18 (150,) energy =    -648.0486712
N           1.4909510    -0.8579424    -0.5439627
H           1.3586291    -0.3032328     0.2974474
C           2.7995855    -0.9431069    -0.9340734
C           5.3736548     1.4599642     1.4307938
H           5.9903280     2.0875710     2.0668142
C           5.9200910     0.7504499     0.3613186
H           6.9823473     0.8124420     0.1415971
C           5.0807184    -0.0389443    -0.4213008
H           5.4389405    -0.6156851    -1.2661465
C           3.7227780    -0.0846949    -0.0976795
N           3.1880516     0.5927835     0.9308181
C           4.0029942     1.3475022     1.6734986
H           3.5402825     1.8847052     2.4990744
O           3.2287586    -1.6134805    -1.8676441
C          -1.7901539    -3.2344461    -1.6968484
H          -2.6430197    -3.8432807    -1.9831859
C          -1.7371440    -2.6470282    -0.4311822
H          -2.5472662    -2.7977733     0.2773361
C          -0.6404040    -1.8723782    -0.0622689
H          -0.5947653    -1.4248772     0.9282758
C           0.4119134    -1.6607148    -0.9658572
C           0.3656007    -2.2524501    -2.2369827
H           1.1889071    -2.1074402    -2.9231305
C          -0.7344803    -3.0343529    -2.5880031
H          -0.7635807    -3.4895634    -3.5745219
25
052_C12H10N2O_2-0-20-18 (165,) energy =    -648.0498100
N           1.5288803    -0.9597407    -0.4773948
H           1.4103561    -0.4405274     0.3883970
C           2.8108920    -0.9335701    -0.9493344
C           5.3788422     1.4534406     1.4375269
H           5.9960617     2.0731771     2.0806525
C           5.9047109     0.8389789     0.3009379
H           6.9499818     0.9694216     0.0346731
C           5.0668993     0.0547207    -0.4884260
H           5.4093853    -0.4508994    -1.3838348
C           3.7313430    -0.0813865    -0.1033215
N           3.2164710     0.5050459     0.9893786
C           4.0295347     1.2554658     1.7383587
H           3.5833363     1.7176780     2.6167363
O           3.2246883    -1.5105397    -1.9509611
C          -1.8191653    -3.1953178    -1.7155138
H          -2.6905407    -3.7669758    -2.0219198
C          -1.8028934    -2.5402145    -0.4823979
H          -2.6617219    -2.5988240     0.1809491
C          -0.6842265    -1.8110913    -0.0897061
H          -0.6729972    -1.3067943     0.8743263
C           0.4353769    -1.7193109    -0.9323010
C           0.4247516    -2.3777028    -2.1720778
H           1.2932543    -2.3171935    -2.8131484
C          -0.7022111    -3.1084759    -2.5478887
H          -0.7020535    -3.6154419    -3.5093355
25
052_C12H10N2O_2-0-20-18 (180,) energy =    -648.0502102
N           1.5682963    -1.0752551    -0.4078487
H           1.4582678    -0.5887332     0.4778246
C           2.8129667    -0.9365730    -0.9527072
C           5.3783853     1.4497466     1.4386143
H           5.9952634     2.0661286     2.0852885
C           5.8755221     0.9256424     0.2452730
H           6.8979786     1.1254994    -0.0631754
C           5.0390761     0.1411377    -0.5453432
H           5.3606562    -0.2968352    -1.4831278
C           3.7333869    -0.0862317    -0.1046954
N           3.2460145     0.4140128     1.0421216
C           4.0577120     1.1649800     1.7920264
H           3.6339928     1.5557073     2.7150906
O           3.1994639    -1.4249894    -2.0111207
C          -1.8438704    -3.1495969    -1.7444509
H          -2.7329787    -3.6790576    -2.0747317
C          -1.8534706    -2.4354067    -0.5444208
H          -2.7505098    -2.4037755     0.0682550
C          -0.7139449    -1.7573269    -0.1222025
H          -0.7250633    -1.2017803     0.8132979
C           0.4570512    -1.7842598    -0.8973161
C           0.4718744    -2.5003984    -2.1050254
H           1.3741749    -2.5192523    -2.7002065
C          -0.6791350    -3.1743142    -2.5129390
H          -0.6590499    -3.7264698    -3.4489809
