25
052_C12H10N2O_0-2-9-10 (-165,) energy =    -648.0313717
N           1.7616182    -1.1971233    -0.6564347
H           2.4557473    -1.1117229    -1.3850617
C           2.1362299    -0.7667151     0.6018248
C           5.7053112     1.5447553     0.9125705
H           6.6081059     2.1257468     1.0748082
C           5.1398407     1.4194468    -0.3527462
H           5.5833220     1.9118231    -1.2137719
C           3.9786274     0.6606025    -0.4968204
H           3.5025199     0.5966518    -1.4704540
C           3.4257516     0.0419644     0.6341534
N           3.9542250     0.1866170     1.8586422
C           5.0657500     0.9118751     1.9825779
H           5.4662129     0.9987490     2.9914964
O           1.4839520    -0.9630129     1.6131687
C          -1.6192730    -3.3619357    -1.9509980
H          -2.4843602    -3.9168775    -2.3023313
C          -1.5354031    -2.9489972    -0.6208808
H          -2.3400442    -3.1837487     0.0709736
C          -0.4324839    -2.2365265    -0.1492394
H          -0.3665964    -1.9249117     0.8831555
C           0.6140794    -1.9284797    -1.0324868
C           0.5314562    -2.3426217    -2.3721122
H           1.3403726    -2.1040200    -3.0608029
C          -0.5755182    -3.0536137    -2.8255354
H          -0.6198749    -3.3657486    -3.8654950
25
052_C12H10N2O_0-2-9-10 (-150,) energy =    -648.0326802
N           1.5935712    -1.0216225    -0.5340799
H           1.3712269    -0.1226053    -0.1289022
C           2.9289274    -1.2503639    -0.8034253
C           5.6843462     1.5791571     0.7802962
H           6.4390816     2.2771812     1.1297535
C           4.5227369     1.3407801     1.5091151
H           4.3463916     1.8419519     2.4569163
C           3.5909512     0.4327811     1.0060474
H           2.6944682     0.1991746     1.5728234
C           3.8595993    -0.2057156    -0.2126318
N           4.9883700     0.0033455    -0.9063631
C           5.8656989     0.8811880    -0.4176840
H           6.7658403     1.0334315    -1.0111755
O           3.3543520    -2.2076855    -1.4279338
C          -1.8549802    -3.2283187    -1.5461661
H          -2.7530742    -3.7851630    -1.7973943
C          -0.5944906    -3.7431840    -1.8511279
H          -0.5080468    -4.7078434    -2.3442382
C           0.5710402    -3.0432776    -1.5381010
H           1.5460282    -3.4399184    -1.7824982
C           0.4719744    -1.7956538    -0.9027769
C          -0.7954128    -1.2750917    -0.5948083
H          -0.8754897    -0.3075703    -0.1019885
C          -1.9479234    -1.9864816    -0.9148893
H          -2.9196557    -1.5666220    -0.6692165
25
052_C12H10N2O_0-2-9-10 (-135,) energy =    -648.0328837
N           1.6041352    -1.0280929    -0.5479640
H           1.3988397    -0.1051216    -0.1890499
C           2.9416546    -1.3210414    -0.7193879
C           5.6412050     1.6196602     0.7387202
H           6.3757662     2.3544658     1.0541489
C           4.5861253     1.2469169     1.5671992
H           4.4759595     1.6789496     2.5581172
C           3.6739144     0.2991554     1.1025824
H           2.8497777    -0.0324071     1.7278115
C           3.8641786    -0.2473659    -0.1730121
N           4.8837197     0.0984064    -0.9726587
C           5.7404703     1.0158148    -0.5184177
H           6.5522266     1.2823338    -1.1933276
O           3.3731341    -2.3344496    -1.2439179
C          -1.8653526    -3.1942633    -1.5742837
H          -2.7686178    -3.7398878    -1.8315210
C          -0.6093668    -3.7590882    -1.7989386
H          -0.5316412    -4.7515863    -2.2349368
C           0.5625605    -3.0743150    -1.4765469
H           1.5349089    -3.5100367    -1.6571749
C           0.4741548    -1.7914668    -0.9142744
C          -0.7882021    -1.2201766    -0.6874861
H          -0.8592002    -0.2248192    -0.2522404
C          -1.9472254    -1.9172919    -1.0157544
H          -2.9154019    -1.4586621    -0.8336039
25
052_C12H10N2O_0-2-9-10 (-120,) energy =    -648.0321694
N           1.6050987    -1.0335830    -0.5614187
H           1.4101210    -0.0901984    -0.2525795
C           2.9382176    -1.3755672    -0.6270761
C           5.6085500     1.6416662     0.7179108
H           6.3287007     2.4027551     1.0026704
C           4.6823411     1.1438935     1.6312518
H           4.6611107     1.5039094     2.6563172
C           3.7806164     0.1689090     1.2041693
H           3.0474024    -0.2531326     1.8856253
C           3.8573883    -0.2789640    -0.1196873
N           4.7447319     0.1940275    -1.0067410
C           5.5934593     1.1358634    -0.5849490
H           6.2987800     1.5060224    -1.3271738
O           3.3721050    -2.4375763    -1.0432535
C          -1.8699028    -3.1747056    -1.6208197
H          -2.7743604    -3.7132971    -1.8884828
C          -0.6201602    -3.7809261    -1.7537323
H          -0.5484674    -4.7987309    -2.1280592
C           0.5531318    -3.1058374    -1.4162315
H           1.5212058    -3.5740903    -1.5243606
C           0.4721368    -1.7908955    -0.9328299
C          -0.7835283    -1.1777045    -0.7986843
H          -0.8481556    -0.1571615    -0.4253270
C          -1.9440650    -1.8657957    -1.1406755
H          -2.9073532    -1.3749878    -1.0308658
25
052_C12H10N2O_0-2-9-10 (-105,) energy =    -648.0314010
N           1.5874192    -1.0310061    -0.5585685
H           1.3998687    -0.0624072    -0.3341581
C           2.9119625    -1.4002518    -0.5266556
C           5.5960751     1.6572912     0.6945999
H           6.3142398     2.4323782     0.9445876
C           4.8317185     1.0331609     1.6784103
H           4.9383602     1.3079369     2.7243309
C           3.9254282     0.0450876     1.2946581
H           3.3132090    -0.4713946     2.0282666
C           3.8319965    -0.2832582    -0.0620095
N           4.5582406     0.3132281    -1.0180657
C           5.4177204     1.2629589    -0.6333667
H           5.9928373     1.7325763    -1.4295655
O           3.3446033    -2.5038150    -0.8193795
C          -1.8723007    -3.1690303    -1.6727634
H          -2.7726142    -3.7066686    -1.9558563
C          -0.6321535    -3.8083370    -1.6912532
H          -0.5635926    -4.8506784    -1.9912852
C           0.5357889    -3.1353372    -1.3317506
H           1.4967683    -3.6296797    -1.3503161
C           0.4589519    -1.7888493    -0.9443846
C          -0.7868550    -1.1425106    -0.9251291
H          -0.8478345    -0.0977663    -0.6255367
C          -1.9423220    -1.8290144    -1.2870703
H          -2.8982541    -1.3126261    -1.2669548
25
052_C12H10N2O_0-2-9-10 (-90,) energy =    -648.0318123
N           1.5598827    -1.0058317    -0.5693579
H           1.3830662    -0.0170244    -0.4469321
C           2.8724841    -1.3887365    -0.4399159
C           5.5905663     1.6748883     0.6807224
H           6.3124947     2.4545658     0.9041791
C           5.0078958     0.9150973     1.6944773
H           5.2652670     1.0868271     2.7361302
C           4.0912112    -0.0751596     1.3465185
H           3.6225015    -0.7002872     2.1006111
C           3.7905633    -0.2569090    -0.0074648
N           4.3441243     0.4657144    -0.9916422
C           5.2251636     1.4102974    -0.6399251
H           5.6599695     1.9816902    -1.4582045
O           3.2981552    -2.5230426    -0.5982900
C          -1.8730206    -3.1706253    -1.7143885
H          -2.7666043    -3.7146627    -2.0064590
C          -0.6484950    -3.8302446    -1.6028209
H          -0.5854915    -4.8953449    -1.8096986
C           0.5104452    -3.1491534    -1.2296279
H           1.4595079    -3.6597654    -1.1469641
C           0.4405689    -1.7734732    -0.9621694
C          -0.7894430    -1.1066759    -1.0737038
H          -0.8447920    -0.0393754    -0.8671832
C          -1.9360877    -1.8016995    -1.4472007
H          -2.8797347    -1.2691449    -1.5295027
25
052_C12H10N2O_0-2-9-10 (-75,) energy =    -648.0340841
N           1.5394562    -0.9829619    -0.5697422
H           1.3918586     0.0184946    -0.5712326
C           2.8366846    -1.3771324    -0.3550146
C           5.5729401     1.6973471     0.6733177
H           6.2927864     2.4853172     0.8731242
C           5.1879373     0.7982914     1.6686380
H           5.6033459     0.8674225     2.6703046
C           4.2689698    -0.1987631     1.3519444
H           3.9574373    -0.9370338     2.0840060
C           3.7512699    -0.2365779     0.0526687
N           4.1205471     0.6139749    -0.9156231
C           5.0142199     1.5597761    -0.5971799
H           5.2976622     2.2355190    -1.4021840
O           3.2429619    -2.5303407    -0.3835564
C          -1.8705097    -3.1641358    -1.7510421
H          -2.7585827    -3.7118305    -2.0529956
C          -0.6762392    -3.8386437    -1.4944949
H          -0.6316706    -4.9196742    -1.5975456
C           0.4747994    -3.1526896    -1.1061269
H           1.4008543    -3.6751562    -0.9116997
C           0.4284407    -1.7565621    -0.9728044
C          -0.7711870    -1.0747958    -1.2299886
H          -0.8082454     0.0080792    -1.1267004
C          -1.9104078    -1.7750478    -1.6162004
H          -2.8302198    -1.2307544    -1.8125337
25
052_C12H10N2O_0-2-9-10 (-60,) energy =    -648.0379930
N           1.5351018    -0.9761308    -0.5756644
H           1.4336462     0.0254035    -0.6883732
C           2.8072398    -1.3865717    -0.2657071
C           5.5338770     1.7179731     0.6781875
H           6.2421535     2.5209852     0.8583237
C           5.3326145     0.7056176     1.6178983
H           5.8842368     0.6998003     2.5540116
C           4.4222234    -0.3067341     1.3282232
H           4.2512182    -1.1348733     2.0076940
C           3.7212992    -0.2422433     0.1192662
N           3.9173510     0.7153574    -0.7991079
C           4.8070646     1.6744599    -0.5113600
H           4.9474792     2.4380404    -1.2742969
O           3.1815076    -2.5491109    -0.1789186
C          -1.8702902    -3.1510237    -1.7779178
H          -2.7573578    -3.6966941    -2.0864786
C          -0.7156706    -3.8351295    -1.3957345
H          -0.7013351    -4.9218424    -1.4068861
C           0.4333063    -3.1517200    -0.9971332
H           1.3291458    -3.6818818    -0.7058010
C           0.4259762    -1.7483956    -0.9820529
C          -0.7340185    -1.0570517    -1.3654883
H          -0.7407277     0.0311747    -1.3529465
C          -1.8717081    -1.7548886    -1.7602719
H          -2.7603221    -1.2033100    -2.0552452
25
052_C12H10N2O_0-2-9-10 (-45,) energy =    -648.0425567
N           1.5466770    -0.9789510    -0.5878167
H           1.4968993     0.0143384    -0.7864312
C           2.7885598    -1.4021594    -0.1898948
C           5.4966345     1.7440900     0.6602812
H           6.1881859     2.5658120     0.8196088
C           5.4705458     0.6417997     1.5160676
H           6.1464732     0.5837179     2.3647790
C           4.5722253    -0.3893817     1.2557176
H           4.5284371    -1.2851002     1.8652086
C           3.7090898    -0.2558354     0.1638919
N           3.7358564     0.7908077    -0.6754449
C           4.6134716     1.7685614    -0.4195547
H           4.6133190     2.6047882    -1.1162266
O           3.1271391    -2.5659001    -0.0075585
C          -1.8603215    -3.1366546    -1.8117974
H          -2.7478082    -3.6778199    -2.1270745
C          -0.7531732    -3.8235582    -1.3119838
H          -0.7764704    -4.9076443    -1.2374354
C           0.3954082    -3.1460325    -0.9026742
H           1.2549118    -3.6787995    -0.5205626
C           0.4370405    -1.7461741    -0.9971650
C          -0.6755350    -1.0522510    -1.4990057
H          -0.6442115     0.0331553    -1.5704763
C          -1.8136626    -1.7440800    -1.9028652
H          -2.6650515    -1.1907898    -2.2900907
25
052_C12H10N2O_0-2-9-10 (-30,) energy =    -648.0466107
N           1.5571501    -0.9879705    -0.5869104
H           1.5501991    -0.0033397    -0.8352684
C           2.7592838    -1.4153408    -0.0908228
C           5.4721129     1.7538737     0.6573953
H           6.1536180     2.5870822     0.7988180
C           5.5870169     0.5881942     1.4157128
H           6.3651202     0.4905332     2.1677658
C           4.6923778    -0.4537476     1.1856492
H           4.7442738    -1.3943297     1.7220125
C           3.6993643    -0.2725528     0.2193584
N           3.5878429     0.8396304    -0.5241257
C           4.4584888     1.8295024    -0.2993840
H           4.3432866     2.7186305    -0.9163695
O           3.0573440    -2.5735711     0.1825169
C          -1.8468826    -3.1281701    -1.8454647
H          -2.7332847    -3.6645069    -2.1719212
C          -0.7872762    -3.8105692    -1.2461626
H          -0.8470967    -4.8865689    -1.1046404
C           0.3588105    -3.1388292    -0.8207938
H           1.1814131    -3.6682838    -0.3606662
C           0.4472118    -1.7493582    -1.0007401
C          -0.6178253    -1.0599559    -1.6026836
H          -0.5502252     0.0173502    -1.7400208
C          -1.7541355    -1.7459776    -2.0211177
H          -2.5682263    -1.1963550    -2.4860461
25
052_C12H10N2O_0-2-9-10 (-15,) energy =    -648.0492950
N           1.5694434    -0.9992177    -0.6061465
H           1.5877416    -0.0193733    -0.8749019
C           2.7201135    -1.4138885     0.0033849
C           5.4585423     1.7572876     0.6566648
H           6.1362436     2.5958678     0.7838241
C           5.6739217     0.5450564     1.3126317
H           6.5301270     0.4151459     1.9687923
C           4.7751371    -0.4991475     1.1085064
H           4.8910671    -1.4704214     1.5753854
C           3.6858750    -0.2788926     0.2623241
N           3.4734866     0.8818032    -0.3784312
C           4.3450598     1.8747921    -0.1777663
H           4.1463047     2.8029574    -0.7100504
O           2.9735296    -2.5576982     0.3705997
C          -1.8410965    -3.1289317    -1.8599299
H          -2.7279612    -3.6635328    -2.1879673
C          -0.8210903    -3.7993026    -1.1832440
H          -0.9124321    -4.8635997    -0.9823606
C           0.3250642    -3.1301337    -0.7542837
H           1.1164490    -3.6497961    -0.2323411
C           0.4541158    -1.7555309    -1.0095146
C          -0.5710534    -1.0783182    -1.6900144
H          -0.4717148    -0.0127855    -1.8867839
C          -1.7080421    -1.7616253    -2.1107423
H          -2.4911135    -1.2216676    -2.6363677
25
052_C12H10N2O_0-2-9-10 (0,) energy =    -648.0502116
N           1.5886290    -0.9997547    -0.6313403
H           1.6207552    -0.0239242    -0.9140071
C           2.6796603    -1.3885881     0.0922740
C           5.4619122     1.7622955     0.6610293
H           6.1419947     2.6002546     0.7792062
C           5.7504559     0.5112267     1.2062922
H           6.6685156     0.3492055     1.7643636
C           4.8415298    -0.5283940     1.0236735
H           5.0029002    -1.5242623     1.4197837
C           3.6763000    -0.2690418     0.2988442
N           3.3899375     0.9317713    -0.2296634
C           4.2691941     1.9211040    -0.0479702
H           4.0091907     2.8818919    -0.4879766
O           2.8833266    -2.5095774     0.5505681
C          -1.8346336    -3.1170643    -1.8707420
H          -2.7234974    -3.6487219    -2.1981800
C          -0.8520407    -3.7719669    -1.1269342
H          -0.9749897    -4.8215313    -0.8724535
C           0.2959539    -3.1060560    -0.6977749
H           1.0571845    -3.6131456    -0.1214475
C           0.4651039    -1.7501283    -1.0209235
C          -0.5223006    -1.0885208    -1.7694490
H          -0.3916776    -0.0377754    -2.0200835
C          -1.6614753    -1.7685135    -2.1894698
H          -2.4150771    -1.2405706    -2.7677640
25
052_C12H10N2O_0-2-9-10 (15,) energy =    -648.0492950
N           1.5970238    -1.0145617    -0.6559873
H           1.6331866    -0.0446615    -0.9570614
C           2.6259723    -1.3614789     0.1737330
C           5.4553764     1.7590608     0.6624384
H           6.1414080     2.5930047     0.7745269
C           5.8001663     0.4747982     1.0843090
H           6.7691773     0.2821000     1.5364106
C           4.8788235    -0.5568498     0.9209916
H           5.0768141    -1.5737999     1.2394271
C           3.6503947    -0.2591329     0.3265543
N           3.3067795     0.9746047    -0.0768205
C           4.1976137     1.9568728     0.0890019
H           3.8908338     2.9451657    -0.2478720
O           2.7808307    -2.4504286     0.7192371
C          -1.8322504    -3.1338508    -1.8758806
H          -2.7209070    -3.6674545    -2.2006768
C          -0.8860311    -3.7631498    -1.0657163
H          -1.0374640    -4.7939996    -0.7561312
C           0.2611196    -3.0945350    -0.6385582
H           0.9929397    -3.5810424    -0.0088652
C           0.4662802    -1.7622953    -1.0314670
C          -0.4841977    -1.1266578    -1.8470813
H          -0.3247104    -0.0946046    -2.1526576
C          -1.6231182    -1.8088904    -2.2643148
H          -2.3482304    -1.3011939    -2.8947861
25
052_C12H10N2O_0-2-9-10 (30,) energy =    -648.0466107
N           1.6080174    -1.0162781    -0.6788747
H           1.6472232    -0.0573375    -1.0107236
C           2.5733099    -1.3118185     0.2456468
C           5.4627690     1.7590845     0.6743401
H           6.1608996     2.5830397     0.7856837
C           5.8430649     0.4456869     0.9525826
H           6.8516138     0.2197600     1.2877729
C           4.9041290    -0.5715998     0.8026538
H           5.1283576    -1.6081025     1.0272812
C           3.6256125    -0.2314942     0.3528211
N           3.2459378     1.0299441     0.0944075
C           4.1545010     1.9987117     0.2505551
H           3.8184405     3.0107702     0.0330861
O           2.6756999    -2.3611354     0.8729445
C          -1.8239051    -3.1409531    -1.8869797
H          -2.7114746    -3.6766399    -2.2113248
C          -0.9193940    -3.7370241    -1.0071179
H          -1.1027778    -4.7442468    -0.6420766
C           0.2255077    -3.0646246    -0.5796049
H           0.9237325    -3.5248487     0.1055161
C           0.4708168    -1.7624906    -1.0433893
C          -0.4371388    -1.1605220    -1.9294855
H          -0.2457498    -0.1521186    -2.2907511
C          -1.5745254    -1.8459444    -2.3459728
H          -2.2668441    -1.3641017    -3.0311805
25
052_C12H10N2O_0-2-9-10 (45,) energy =    -648.0425567
N           1.6035894    -1.0106225    -0.6907174
H           1.6600393    -0.0764606    -1.0814913
C           2.5147835    -1.2497646     0.3054032
C           5.4764910     1.7553106     0.6967638
H           6.1916316     2.5639026     0.8134185
C           5.8696918     0.4196394     0.7940804
H           6.9065964     0.1606338     0.9898031
C           4.9073805    -0.5759244     0.6494884
H           5.1463263    -1.6290155     0.7475304
C           3.5913588    -0.1902970     0.3769097
N           3.1980088     1.0901875     0.2975396
C           4.1321505     2.0364784     0.4511740
H           3.7851543     3.0657621     0.3819221
O           2.5668157    -2.2540087     1.0060894
C          -1.8069558    -3.1663516    -1.9082824
H          -2.6874820    -3.7113912    -2.2361506
C          -0.9553013    -3.7110439    -0.9462936
H          -1.1729479    -4.6869525    -0.5201773
C           0.1797309    -3.0259766    -0.5124744
H           0.8363460    -3.4458133     0.2366517
C           0.4686806    -1.7637786    -1.0543499
C          -0.3859272    -1.2134435    -2.0228406
H          -0.1610070    -0.2357958    -2.4445180
C          -1.5142402    -1.9107354    -2.4444538
H          -2.1653344    -1.4689319    -3.1940021
25
052_C12H10N2O_0-2-9-10 (60,) energy =    -648.0379930
N           1.6073459    -1.0163345    -0.7063020
H           1.7045043    -0.1253520    -1.1782956
C           2.4692367    -1.1984263     0.3457708
C           5.5052711     1.7339037     0.7299828
H           6.2417215     2.5212335     0.8591553
C           5.8878713     0.3965631     0.6135176
H           6.9364348     0.1141418     0.6506908
C           4.9001780    -0.5727613     0.4636773
H           5.1391061    -1.6290745     0.4016004
C           3.5663054    -0.1559634     0.3996899
N           3.1843132     1.1233838     0.5269665
C           4.1458955     2.0424835     0.6847080
H           3.8081421     3.0722183     0.7867518
O           2.4662305    -2.1509700     1.1150286
C          -1.7893140    -3.1960892    -1.9243507
H          -2.6653953    -3.7478750    -2.2527850
C          -1.0031059    -3.6751320    -0.8757295
H          -1.2678498    -4.6065058    -0.3820411
C           0.1251235    -2.9801740    -0.4395970
H           0.7311712    -3.3490335     0.3759538
C           0.4738378    -1.7750285    -1.0685827
C          -0.3146294    -1.2904821    -2.1240928
H          -0.0441220    -0.3565574    -2.6130198
C          -1.4369892    -1.9968519    -2.5466078
H          -2.0366367    -1.6061157    -3.3643067
25
052_C12H10N2O_0-2-9-10 (75,) energy =    -648.0340841
N           1.6128169    -1.0237877    -0.7023991
H           1.7717697    -0.1929609    -1.2584237
C           2.4176084    -1.1438613     0.4031202
C           5.5184274     1.7276977     0.7719762
H           6.2732738     2.4961864     0.9084695
C           5.8689204     0.4192563     0.4368251
H           6.9106927     0.1397458     0.3054336
C           4.8587780    -0.5270491     0.2850623
H           5.0818745    -1.5629006     0.0500094
C           3.5319878    -0.1145144     0.4493874
N           3.1821902     1.1362840     0.7818624
C           4.1670078     2.0313529     0.9354290
H           3.8552977     3.0383649     1.2070229
O           2.3438448    -2.0298727     1.2429462
C          -1.7714032    -3.2192924    -1.9302713
H          -2.6433263    -3.7759766    -2.2614389
C          -1.0597175    -3.6251872    -0.8007527
H          -1.3786043    -4.5039134    -0.2463305
C           0.0622125    -2.9230306    -0.3597288
H           0.6106436    -3.2353066     0.5178006
C           0.4805452    -1.7855565    -1.0670098
C          -0.2328991    -1.3744068    -2.2036753
H           0.0908561    -0.4923651    -2.7530796
C          -1.3499407    -2.0870040    -2.6300084
H          -1.8910560    -1.7534982    -3.5113847
25
052_C12H10N2O_0-2-9-10 (90,) energy =    -648.0318123
N           1.6190735    -1.0387698    -0.6763826
H           1.8563293    -0.2804401    -1.3029908
C           2.3679262    -1.1078852     0.4728505
C           5.5287520     1.7093013     0.7925929
H           6.3014315     2.4607297     0.9242454
C           5.8162438     0.4651659     0.2322694
H           6.8254573     0.2184098    -0.0861197
C           4.7843522    -0.4609649     0.0927124
H           4.9637577    -1.4468429    -0.3256027
C           3.5017106    -0.0961225     0.5151028
N           3.2121385     1.0958004     1.0561091
C           4.2158143     1.9721220     1.1859851
H           3.9535678     2.9315038     1.6286372
O           2.2071716    -1.9157794     1.3752880
C          -1.7454541    -3.2416213    -1.9451033
H          -2.6117902    -3.8008247    -2.2864640
C          -1.1275742    -3.5635749    -0.7361457
H          -1.5141817    -4.3784170    -0.1297023
C          -0.0143553    -2.8570351    -0.2802443
H           0.4616760    -3.1043520     0.6581088
C           0.4916673    -1.8019064    -1.0545556
C          -0.1275342    -1.4750930    -2.2710137
H           0.2636392    -0.6563317    -2.8722273
C          -1.2374492    -2.1905605    -2.7109537
H          -1.7048115    -1.9231108    -3.6548292
25
052_C12H10N2O_0-2-9-10 (105,) energy =    -648.0314010
N           1.6369919    -1.0585891    -0.6481963
H           1.9438143    -0.3651643    -1.3180776
C           2.3188868    -1.0701307     0.5462332
C           5.5385389     1.6893217     0.7987317
H           6.3289304     2.4242057     0.9180659
C           5.7329613     0.5315216     0.0481578
H           6.6856398     0.3353816    -0.4363594
C           4.6791959    -0.3744646    -0.0688208
H           4.7879518    -1.2922523    -0.6394218
C           3.4755907    -0.0848714     0.5827596
N           3.2748889     1.0275659     1.3035036
C           4.2937077     1.8886060     1.3999677
H           4.1032383     2.7843594     1.9886778
O           2.0634500    -1.7907021     1.4982027
C          -1.7117933    -3.2583616    -1.9630640
H          -2.5732777    -3.8176130    -2.3163959
C          -1.1828658    -3.5017949    -0.6949962
H          -1.6343638    -4.2546659    -0.0542699
C          -0.0773506    -2.7940470    -0.2225669
H           0.3294205    -2.9799099     0.7614011
C           0.5123322    -1.8185517    -1.0409001
C          -0.0174717    -1.5707489    -2.3168550
H           0.4385351    -0.8137650    -2.9524632
C          -1.1211631    -2.2860720    -2.7724547
H          -1.5185095    -2.0805991    -3.7627901
25
052_C12H10N2O_0-2-9-10 (120,) energy =    -648.0321694
N           1.6440802    -1.0552712    -0.6318877
H           2.0072520    -0.4225609    -1.3327132
C           2.2603919    -0.9982716     0.5991205
C           5.5601770     1.6685992     0.8054681
H           6.3757409     2.3765795     0.9176323
C           5.6384536     0.6117182    -0.0982507
H           6.5233178     0.4673910    -0.7122591
C           4.5562292    -0.2627976    -0.1988218
H           4.5785714    -1.1053908    -0.8841260
C           3.4454022    -0.0496388     0.6256216
N           3.3599594     0.9648171     1.4982857
C           4.4000879     1.8001167     1.5738458
H           4.3014410     2.6177733     2.2859547
O           1.9182778    -1.6283487     1.5866862
C          -1.6708093    -3.2855140    -1.9809248
H          -2.5226785    -3.8533767    -2.3437179
C          -1.2187806    -3.4477177    -0.6708156
H          -1.7212143    -4.1459572    -0.0065798
C          -0.1271143    -2.7271955    -0.1856580
H           0.2192758    -2.8494125     0.8308048
C           0.5283894    -1.8221969    -1.0345408
C           0.0756901    -1.6559464    -2.3529178
H           0.5820052    -0.9531959    -3.0123623
C          -1.0154928    -2.3826401    -2.8203671
H          -1.3523796    -2.2404942    -3.8436836
25
052_C12H10N2O_0-2-9-10 (135,) energy =    -648.0328837
N           1.6554930    -1.0566694    -0.6408211
H           2.0474301    -0.4661246    -1.3622664
C           2.2026876    -0.9097140     0.6174098
C           5.5896630     1.6483551     0.8320069
H           6.4311778     2.3236283     0.9539635
C           5.5586881     0.7055815    -0.1920664
H           6.3839693     0.6169316    -0.8933217
C           4.4475321    -0.1314436    -0.2968034
H           4.3962231    -0.8931723    -1.0695795
C           3.4148010     0.0027713     0.6399354
N           3.4419618     0.9009158     1.6354531
C           4.5062981     1.7027785     1.7141841
H           4.4956017     2.4270857     2.5270484
O           1.7854726    -1.4507279     1.6281214
C          -1.6362514    -3.3217729    -1.9886676
H          -2.4809246    -3.9000102    -2.3518941
C          -1.2430852    -3.4063428    -0.6525295
H          -1.7846643    -4.0541291     0.0317606
C          -0.1617658    -2.6711364    -0.1662338
H           0.1376940    -2.7323201     0.8703574
C           0.5440377    -1.8303542    -1.0406429
C           0.1505367    -1.7426785    -2.3855665
H           0.6960075    -1.0904545    -3.0654788
C          -0.9311497    -2.4828403    -2.8537324
H          -1.2214903    -2.4015014    -3.8977495
25
052_C12H10N2O_0-2-9-10 (150,) energy =    -648.0326802
N           1.6620763    -1.0597444    -0.6579539
H           2.0751139    -0.5143889    -1.4021483
C           2.1463354    -0.8147549     0.6122899
C           5.6369605     1.6055411     0.8660645
H           6.5077751     2.2389539     1.0055415
C           5.4999110     0.7968816    -0.2584907
H           6.2706527     0.7708930    -1.0239186
C           4.3570252     0.0063836    -0.3796906
H           4.2425942    -0.6625227    -1.2276051
C           3.3910576     0.0550894     0.6349834
N           3.5301839     0.8149987     1.7314662
C           4.6236947     1.5725114     1.8290845
H           4.6993263     2.1836871     2.7270872
O           1.6603951    -1.2647997     1.6363911
C          -1.6164812    -3.3610603    -1.9775519
H          -2.4562228    -3.9503841    -2.3343369
C          -1.2720468    -3.3660383    -0.6254194
H          -1.8470441    -3.9625310     0.0779814
C          -0.1980480    -2.6151843    -0.1468156
H           0.0620434    -2.6139052     0.9019965
C           0.5508710    -1.8395595    -1.0454493
C           0.2063077    -1.8326525    -2.4068193
H           0.7853589    -1.2320100    -3.1063262
C          -0.8687137    -2.5871735    -2.8670749
H          -1.1203224    -2.5681436    -3.9240667
25
052_C12H10N2O_0-2-9-10 (165,) energy =    -648.0313716
N           1.6769282    -1.0640724    -0.6698746
H           2.1173065    -0.5792732    -1.4386613
C           2.1107292    -0.7268867     0.5977559
C           5.6904219     1.5678769     0.9103504
H           6.5850338     2.1617319     1.0713361
C           5.4497160     0.9316886    -0.3036536
H           6.1602226     1.0039501    -1.1224542
C           4.2828099     0.1818133    -0.4486654
H           4.1092741    -0.3580066    -1.3745225
C           3.3874891     0.1018710     0.6281349
N           3.6334184     0.6909811     1.8079851
C           4.7506550     1.4072404     1.9328618
H           4.9092428     1.8746053     2.9035591
O           1.5632727    -1.0881776     1.6256584
C          -1.6003670    -3.3915346    -1.9485008
H          -2.4380489    -3.9895112    -2.2956095
C          -1.3137825    -3.2977262    -0.5862099
H          -1.9322831    -3.8254016     0.1350626
C          -0.2434943    -2.5340285    -0.1195867
H          -0.0287071    -2.4568175     0.9364390
C           0.5619086    -1.8464708    -1.0409497
C           0.2756297    -1.9399969    -2.4128962
H           0.8991201    -1.4096125    -3.1308966
C          -0.7967234    -2.7053560    -2.8609795
H          -1.0020666    -2.7640595    -3.9264840
25
052_C12H10N2O_0-2-9-10 (180,) energy =    -648.0300631
N           1.7112375    -1.1404659    -0.6859799
H           2.2833112    -0.8611249    -1.4681158
C           2.1201597    -0.7468159     0.5714681
C           5.6977091     1.5586713     0.9462435
H           6.5931629     2.1446135     1.1297933
C           5.3245450     1.1847140    -0.3408956
H           5.9229745     1.4709195    -1.2013070
C           4.1635277     0.4318939    -0.5131006
H           3.8807966     0.1456723    -1.5216492
C           3.4069157     0.0737790     0.6129443
N           3.7694037     0.4361015     1.8528315
C           4.8805188     1.1555004     2.0056703
H           5.1339245     1.4257796     3.0297065
O           1.5156351    -1.0205016     1.5946093
C          -1.6300393    -3.3885947    -1.9423685
H          -2.4843400    -3.9657661    -2.2841549
C          -1.4414364    -3.1400131    -0.5825101
H          -2.1533695    -3.5258466     0.1424268
C          -0.3510063    -2.4012290    -0.1224003
H          -0.2080810    -2.2099728     0.9311151
C           0.5760692    -1.8969304    -1.0482233
C           0.3876444    -2.1459265    -2.4179900
H           1.1035616    -1.7565133    -3.1402259
C          -0.7054671    -2.8851428    -2.8594391
H          -0.8324832    -3.0662665    -3.9233862
