24
221_C9H12O2S_4-5-19-17 (-165,) energy =    -898.7600053
C           1.0382037    -1.4321009     1.4338871
H           0.3799238    -2.1954912     1.8555422
H           0.4982162    -0.8412267     0.6933446
H           1.4393851    -0.8056775     2.2333139
S           2.3862833    -2.3614771     0.6511648
C           3.5423076    -1.0483488     0.0530946
C           2.8521004    -0.2122677    -1.0381526
H           3.5404054     0.5615016    -1.3905667
H           1.9487552     0.2862840    -0.6717596
H           2.5843596    -0.8485801    -1.8857141
H           3.7203134    -0.4370831     0.9463363
O           3.0554033    -3.1182312     1.7217954
O           1.8195891    -3.0630907    -0.5153562
C           7.3524679    -2.4466691    -1.4759661
H           8.3106186    -2.7718858    -1.8719572
C           7.1579907    -1.1136706    -1.1102359
H           7.9624431    -0.3913143    -1.2199764
C           5.9275272    -0.7049130    -0.5999879
H           5.7903931     0.3349418    -0.3099135
C           4.8728754    -1.6159497    -0.4335820
C           5.0698751    -2.9458538    -0.8259092
H           4.2674279    -3.6697028    -0.7480516
C           6.3053418    -3.3554294    -1.3321992
H           6.4417813    -4.3940892    -1.6204829
24
221_C9H12O2S_4-5-19-17 (-150,) energy =    -898.7622843
C           1.1087461    -1.3642772     1.5358710
H           0.4807285    -2.1125424     2.0253112
H           0.5305800    -0.8275500     0.7826338
H           1.5268002    -0.6843373     2.2809807
S           2.4465507    -2.3094249     0.7543187
C           3.5245234    -1.0098254    -0.0044191
C           2.7824097    -0.3187829    -1.1593291
H           3.4324755     0.4471727    -1.5937296
H           1.8600352     0.1705304    -0.8287247
H           2.5336830    -1.0446566    -1.9377873
H           3.6940972    -0.3035454     0.8167112
O           3.1992364    -2.9620134     1.8371122
O           1.8398711    -3.1124987    -0.3245572
C           7.3527964    -2.4275630    -1.4432044
H           8.3160415    -2.7607256    -1.8198447
C           7.2095351    -1.1410733    -0.9215534
H           8.0592876    -0.4644140    -0.8902788
C           5.9728974    -0.7215377    -0.4331188
H           5.8703892     0.2804657    -0.0211247
C           4.8633016    -1.5782331    -0.4516958
C           5.0092142    -2.8593836    -1.0007217
H           4.1581035    -3.5296280    -1.0554854
C           6.2501731    -3.2812766    -1.4800513
H           6.3501372    -4.2830287    -1.8888891
24
221_C9H12O2S_4-5-19-17 (-135,) energy =    -898.7639584
C           1.1447387    -1.3446980     1.5648929
H           0.5665080    -2.0783811     2.1316229
H           0.5214427    -0.8969268     0.7896728
H           1.5500177    -0.5884498     2.2403448
S           2.5054247    -2.2853686     0.8175221
C           3.5007124    -1.0015639    -0.0762362
C           2.7045211    -0.4420551    -1.2641389
H           3.3128902     0.3088495    -1.7782555
H           1.7714606     0.0375288    -0.9495431
H           2.4639901    -1.2384281    -1.9730821
H           3.6558872    -0.2234931     0.6798204
O           3.3192473    -2.8140047     1.9230767
O           1.9090158    -3.1970741    -0.1780295
C           7.3608704    -2.4337284    -1.3975788
H           8.3323735    -2.7749877    -1.7446676
C           7.2433593    -1.2146142    -0.7293416
H           8.1217949    -0.5997302    -0.5528754
C           5.9952249    -0.7834917    -0.2798005
H           5.9107112     0.1648641     0.2465285
C           4.8494277    -1.5605809    -0.4924548
C           4.9730134    -2.7780051    -1.1778166
H           4.0950950    -3.3910480    -1.3549806
C           6.2234353    -3.2125495    -1.6169396
H           6.3065996    -4.1642763    -2.1346210
24
221_C9H12O2S_4-5-19-17 (-120,) energy =    -898.7648850
C           1.1904149    -1.2976138     1.6017232
H           0.6706812    -2.0109489     2.2458156
H           0.5202502    -0.9489801     0.8146944
H           1.5730845    -0.4674039     2.1990356
S           2.5789951    -2.2220437     0.8855206
C           3.4799470    -0.9676469    -0.1459039
C           2.6205315    -0.5319610    -1.3394608
H           3.1778722     0.2011014    -1.9314256
H           1.6816442    -0.0654472    -1.0230191
H           2.3819231    -1.3852729    -1.9790459
H           3.6285007    -0.1287412     0.5433175
O           3.4549277    -2.6110612     2.0013029
O           2.0077326    -3.2424729    -0.0140094
C           7.3554263    -2.4481892    -1.3586258
H           8.3312187    -2.8082486    -1.6732528
C           7.2515892    -1.3053565    -0.5651748
H           8.1456947    -0.7702159    -0.2570354
C           5.9971430    -0.8489364    -0.1601765
H           5.9226579     0.0385805     0.4639815
C           4.8320548    -1.5215730    -0.5477739
C           4.9440332    -2.6696278    -1.3463131
H           4.0518024    -3.2148978    -1.6372953
C           6.1990186    -3.1295671    -1.7432262
H           6.2724430    -4.0251139    -2.3541663
24
221_C9H12O2S_4-5-19-17 (-105,) energy =    -898.7649929
C           1.2339943    -1.2841980     1.6327665
H           0.7854059    -1.9646736     2.3604780
H           0.5216113    -1.0683769     0.8353033
H           1.5644807    -0.3712213     2.1326452
S           2.6738804    -2.1701157     0.9708393
C           3.4736609    -0.9577526    -0.1912679
C           2.5441986    -0.6367272    -1.3666800
H           3.0608855     0.0348906    -2.0596642
H           1.6274915    -0.1377020    -1.0360485
H           2.2623975    -1.5435682    -1.9074084
H           3.6185321    -0.0685132     0.4325144
O           3.5947840    -2.3891994     2.0969284
O           2.1660697    -3.3058286     0.1792192
C           7.3576440    -2.4819293    -1.3168328
H           8.3364378    -2.8588489    -1.6008749
C           7.2487143    -1.4309659    -0.4051899
H           8.1411596    -0.9865823     0.0269048
C           5.9911372    -0.9508132    -0.0415472
H           5.9106971    -0.1378924     0.6758608
C           4.8277498    -1.5039487    -0.5910689
C           4.9454327    -2.5678282    -1.4973138
H           4.0545714    -3.0327915    -1.9066665
C           6.2031134    -3.0508420    -1.8573095
H           6.2795938    -3.8773189    -2.5585290
24
221_C9H12O2S_4-5-19-17 (-90,) energy =    -898.7645911
C           0.6827056    -1.0683492     0.2113891
H          -0.0739131    -0.7164745    -0.4939825
H           0.7288543    -0.4014751     1.0733928
H           0.4617026    -2.0951954     0.5105894
S           2.2497677    -1.0257193    -0.7045054
C           3.5010579    -1.7488084     0.4715931
C           3.6203169    -0.8833008     1.7290743
H           4.4306229    -1.2662618     2.3574705
H           2.6993053    -0.9041320     2.3199965
H           3.8376515     0.1577588     1.4767474
H           3.0702259    -2.7249702     0.7219982
O           2.1052033    -1.9576216    -1.8342949
O           2.5923318     0.3894258    -0.9313788
C           7.1399622    -2.3911241    -1.7704301
H           8.0524263    -2.5578071    -2.3365090
C           6.1797021    -3.3998183    -1.6744856
H           6.3383855    -4.3543445    -2.1686699
C           5.0105467    -3.1837005    -0.9474109
H           4.2593897    -3.9664204    -0.8860791
C           4.7882200    -1.9628600    -0.2957187
C           5.7495528    -0.9496402    -0.4127589
H           5.5849700     0.0142294     0.0573119
C           6.9197033    -1.1654739    -1.1408309
H           7.6569311    -0.3711887    -1.2198212
24
221_C9H12O2S_4-5-19-17 (-75,) energy =    -898.7638130
C           0.6743959    -1.0803502     0.2462625
H          -0.1129022    -0.8410989    -0.4725842
H           0.7250387    -0.3092315     1.0158489
H           0.4935801    -2.0670027     0.6783271
S           2.2094356    -1.1115222    -0.7233425
C           3.5126276    -1.6851051     0.4827324
C           3.6015958    -0.7195281     1.6663644
H           4.4276914    -1.0182124     2.3195605
H           2.6850432    -0.7327516     2.2633414
H           3.7756054     0.3061870     1.3301933
H           3.1219388    -2.6544308     0.8148632
O           2.0358807    -2.1622771    -1.7405963
O           2.5178325     0.2738829    -1.1164176
C           7.1555748    -2.3553777    -1.7548911
H           8.0674112    -2.5286064    -2.3200483
C           6.1034227    -3.2709014    -1.8199199
H           6.1900155    -4.1588988    -2.4399933
C           4.9359168    -3.0493313    -1.0926267
H           4.1160015    -3.7573542    -1.1591849
C           4.8028569    -1.9121163    -0.2810198
C           5.8570599    -0.9904081    -0.2371447
H           5.7718871    -0.0910802     0.3635134
C           7.0277020    -1.2145404    -0.9629667
H           7.8374191    -0.4917801    -0.9112900
24
221_C9H12O2S_4-5-19-17 (-60,) energy =    -898.7620713
C           0.6525408    -1.1501773     0.3009046
H          -0.1736807    -1.0492251    -0.4068459
H           0.7026726    -0.2722865     0.9455506
H           0.5319848    -2.0681238     0.8804247
S           2.1404027    -1.2700667    -0.7341958
C           3.5108695    -1.6715534     0.4701378
C           3.5734023    -0.6048668     1.5641615
H           4.3860645    -0.8391034     2.2588468
H           2.6479755    -0.5724091     2.1454200
H           3.7499731     0.3876646     1.1400943
H           3.1670278    -2.6222566     0.8979524
O           1.9289815    -2.4376150    -1.6083740
O           2.3950924     0.0611820    -1.3085144
C           7.1841269    -2.3567151    -1.7346075
H           8.1023369    -2.5308407    -2.2890513
C           6.0666468    -3.1649169    -1.9508891
H           6.1083661    -3.9704370    -2.6789577
C           4.8887991    -2.9452949    -1.2396009
H           4.0249269    -3.5736005    -1.4233130
C           4.8080275    -1.9140459    -0.2884588
C           5.9298368    -1.0964098    -0.0947013
H           5.8953872    -0.2761937     0.6138543
C           7.1108333    -1.3218223    -0.8037666
H           7.9703689    -0.6800623    -0.6299444
24
221_C9H12O2S_4-5-19-17 (-45,) energy =    -898.7595464
C           0.6468127    -1.1606031     0.3926336
H          -0.2155936    -1.2064493    -0.2766206
H           0.6970286    -0.1836850     0.8735923
H           0.5870809    -1.9685523     1.1252512
S           2.0792048    -1.4193246    -0.6950765
C           3.5170559    -1.6537405     0.4719508
C           3.5682487    -0.4940134     1.4691114
H           4.3567430    -0.6735708     2.2057015
H           2.6322334    -0.4006940     2.0252932
H           3.7704848     0.4538801     0.9621126
H           3.2266995    -2.5742241     0.9966978
O           1.8208412    -2.6989249    -1.3821620
O           2.2862359    -0.1824142    -1.4652213
C           7.2155062    -2.3574698    -1.7108460
H           8.1404474    -2.5337141    -2.2532334
C           6.0460175    -3.0264189    -2.0735526
H           6.0524885    -3.7255111    -2.9054618
C           4.8575754    -2.8055181    -1.3796581
H           3.9602486    -3.3341055    -1.6778212
C           4.8134959    -1.9084873    -0.2980074
C           5.9915523    -1.2277682     0.0432870
H           5.9979808    -0.5086026     0.8542757
C           7.1824212    -1.4573698    -0.6478375
H           8.0813264    -0.9213783    -0.3550454
24
221_C9H12O2S_4-5-19-17 (-30,) energy =    -898.7574114
C           0.6223573    -1.1912191     0.5152958
H          -0.2668424    -1.3470870    -0.1001022
H           0.6434280    -0.1689708     0.8927330
H           0.6399524    -1.9220616     1.3268347
S           2.0091269    -1.4952643    -0.6191972
C           3.5052191    -1.5822847     0.4866478
C           3.5655634    -0.3157873     1.3490253
H           4.3500918    -0.4103572     2.1039574
H           2.6318992    -0.1521043     1.8927653
H           3.7739098     0.5638796     0.7337491
H           3.2661293    -2.4480220     1.1200132
O           1.7601322    -2.8371973    -1.1802585
O           2.1337234    -0.3244984    -1.5027022
C           7.1988504    -2.3977145    -1.6820042
H           8.1244256    -2.5991388    -2.2143977
C           5.9844983    -2.8809522    -2.1676246
H           5.9553107    -3.4621688    -3.0853306
C           4.7934971    -2.6277700    -1.4874695
H           3.8678436    -3.0294807    -1.8803042
C           4.7888192    -1.8749198    -0.3011672
C           6.0176842    -1.3872943     0.1712487
H           6.0653753    -0.7942485     1.0773383
C           7.2092297    -1.6518069    -0.5050470
H           8.1441762    -1.2641421    -0.1091333
24
221_C9H12O2S_4-5-19-17 (-15,) energy =    -898.7568046
C           0.6368175    -1.3801413     0.5041157
H          -0.2552887    -1.6122029    -0.0824376
H           0.5992716    -0.3478804     0.8520158
H           0.7233910    -2.0831409     1.3354848
S           2.0137811    -1.6267938    -0.6548565
C           3.5282718    -1.5379807     0.4152902
C           3.5449150    -0.1653081     1.1069788
H           4.3886652    -0.0942868     1.7966977
H           2.6402494     0.0035145     1.6977751
H           3.6355140     0.6323093     0.3647648
H           3.3494537    -2.3315628     1.1534333
O           1.8659797    -3.0066415    -1.1539441
O           2.0245422    -0.4907531    -1.5916515
C           7.2812487    -2.4223517    -1.6172220
H           8.2259197    -2.6401359    -2.1079450
C           6.0735210    -2.7225027    -2.2439592
H           6.0687503    -3.1800905    -3.2294958
C           4.8562391    -2.4486130    -1.6178379
H           3.9387315    -2.7205405    -2.1232703
C           4.8216305    -1.8455501    -0.3515416
C           6.0466596    -1.5607609     0.2744197
H           6.0674723    -1.1204206     1.2661668
C           7.2613911    -1.8458482    -0.3476918
H           8.1914079    -1.6137670     0.1644861
24
221_C9H12O2S_4-5-19-17 (0,) energy =    -898.7578431
C           0.6623898    -1.4572330     0.6031871
H          -0.2436415    -1.7331144     0.0583410
H           0.6104481    -0.4132214     0.9129336
H           0.7966531    -2.1244295     1.4573030
S           2.0083116    -1.7098714    -0.5887028
C           3.5435325    -1.4683580     0.4164403
C           3.5573586    -0.0268167     0.9541608
H           4.4625472     0.1438351     1.5424135
H           2.7014313     0.1788730     1.6044506
H           3.5484775     0.6838011     0.1233451
H           3.4190415    -2.1824565     1.2405080
O           1.9336267    -3.1229477    -0.9981191
O           1.9241627    -0.6372801    -1.5950990
C           7.2838092    -2.4592174    -1.5674949
H           8.2302066    -2.7057177    -2.0409463
C           6.0899667    -2.5732851    -2.2767464
H           6.0987256    -2.9122739    -3.3090110
C           4.8685849    -2.2620794    -1.6747089
H           3.9610714    -2.3750810    -2.2536836
C           4.8244055    -1.8103210    -0.3493994
C           6.0326707    -1.7171107     0.3608861
H           6.0261370    -1.4039546     1.4019822
C           7.2497783    -2.0337017    -0.2389029
H           8.1688612    -1.9512566     0.3351426
24
221_C9H12O2S_4-5-19-17 (15,) energy =    -898.7597498
C           0.6771093    -1.5285520     0.5944813
H          -0.2243737    -1.8607035     0.0740525
H           0.5999100    -0.4684192     0.8374915
H           0.8329598    -2.1358907     1.4886417
S           2.0258529    -1.8170126    -0.5852838
C           3.5517115    -1.4200697     0.3796217
C           3.5330603     0.0632579     0.7881954
H           4.4464444     0.2975586     1.3429656
H           2.6813154     0.3086641     1.4307629
H           3.4988798     0.6977963    -0.1015078
H           3.4666791    -2.0607663     1.2654574
O           2.0243553    -3.2586082    -0.8828953
O           1.8817782    -0.8311155    -1.6720799
C           7.2917948    -2.4673658    -1.5551527
H           8.2391516    -2.7321167    -2.0167274
C           6.1291631    -2.4037560    -2.3211768
H           6.1653037    -2.6193974    -3.3854656
C           4.9065159    -2.0671643    -1.7357711
H           4.0225627    -2.0119519    -2.3595984
C           4.8338181    -1.7812119    -0.3670857
C           6.0076781    -1.8621352     0.3983201
H           5.9653857    -1.6682048     1.4682057
C           7.2273494    -2.1940687    -0.1876890
H           8.1228891    -2.2478541     0.4255820
24
221_C9H12O2S_4-5-19-17 (30,) energy =    -898.7618483
C           0.7042787    -1.6757715     0.6612387
H          -0.1895518    -2.0663517     0.1689194
H           0.5798422    -0.6131773     0.8733010
H           0.9062980    -2.2459899     1.5703087
S           2.0477258    -1.9327840    -0.5317938
C           3.5590829    -1.3752248     0.3788009
C           3.4881889     0.1394319     0.6346455
H           4.3905761     0.4535625     1.1685746
H           2.6225611     0.4202197     1.2439159
H           3.4403884     0.6814256    -0.3134353
H           3.5047196    -1.9234077     1.3264890
O           2.1470773    -3.3836177    -0.7557716
O           1.8100508    -1.0162458    -1.6631516
C           7.2843440    -2.4808089    -1.5365588
H           8.2276675    -2.7573891    -1.9995287
C           6.1554943    -2.2515802    -2.3229093
H           6.2153278    -2.3500663    -3.4033229
C           4.9397634    -1.8973781    -1.7356028
H           4.0768044    -1.7103911    -2.3651764
C           4.8403263    -1.7675382    -0.3442305
C           5.9764667    -2.0144310     0.4397733
H           5.9082245    -1.9382459     1.5232153
C           7.1919654    -2.3591504    -0.1492263
H           8.0612060    -2.5433604     0.4764071
24
221_C9H12O2S_4-5-19-17 (45,) energy =    -898.7636479
C           0.7383995    -1.7259195     0.7466389
H          -0.1484490    -2.1722733     0.2904548
H           0.5814655    -0.6574775     0.9002564
H           0.9712925    -2.2360569     1.6835912
S           2.0772174    -2.0039195    -0.4471069
C           3.5750187    -1.3053618     0.3936830
C           3.4539389     0.2225594     0.5024416
H           4.3474240     0.6158537     0.9977803
H           2.5810868     0.5305697     1.0878936
H           3.3819691     0.6711667    -0.4916514
H           3.5485840    -1.7614121     1.3897896
O           2.2465579    -3.4601581    -0.5680568
O           1.7787290    -1.1826802    -1.6362826
C           7.2675318    -2.4968543    -1.5205254
H           8.2021106    -2.7908395    -1.9904477
C           6.1883420    -2.0831200    -2.3028576
H           6.2780445    -2.0578056    -3.3854483
C           4.9859623    -1.7032573    -1.7064330
H           4.1535187    -1.3842063    -2.3252105
C           4.8488781    -1.7369495    -0.3113779
C           5.9318153    -2.1686873     0.4655652
H           5.8329311    -2.2149708     1.5480194
C           7.1369263    -2.5373686    -0.1319399
H           7.9676084    -2.8652279     0.4872498
24
221_C9H12O2S_4-5-19-17 (60,) energy =    -898.7648161
C           0.7571924    -1.7388742     0.7759549
H          -0.1111446    -2.2572349     0.3623001
H           0.5619731    -0.6667882     0.8265848
H           1.0020136    -2.1483865     1.7581873
S           2.1143158    -2.0800692    -0.3804863
C           3.5835145    -1.2371737     0.3810807
C           3.4030289     0.2862656     0.3527793
H           4.2823599     0.7576847     0.8033365
H           2.5217841     0.6087769     0.9172896
H           3.3043159     0.6461273    -0.6743663
H           3.5822733    -1.6021988     1.4143232
O           2.3496623    -3.5316341    -0.3478771
O           1.7896843    -1.3987500    -1.6483134
C           7.2444899    -2.5303939    -1.5188842
H           8.1705069    -2.8487934    -1.9899086
C           6.2430994    -1.9244696    -2.2801148
H           6.3844639    -1.7753562    -3.3471077
C           5.0540724    -1.5110782    -1.6805243
H           4.2742450    -1.0560619    -2.2828896
C           4.8516321    -1.7033116    -0.3056582
C           5.8548016    -2.3257105     0.4469328
H           5.7023492    -2.4928445     1.5107374
C           7.0476256    -2.7307666    -0.1522780
H           7.8177988    -3.2078942     0.4477053
24
221_C9H12O2S_4-5-19-17 (75,) energy =    -898.7649890
C           0.7807233    -1.7764674     0.8293691
H          -0.0532515    -2.3978672     0.4944003
H           0.5230894    -0.7211141     0.7300052
H           1.0424159    -2.0298123     1.8589102
S           2.1636803    -2.1954242    -0.2698231
C           3.5943204    -1.1990185     0.3791002
C           3.3222179     0.3020384     0.2340366
H           4.2016316     0.8604270     0.5703203
H           2.4691863     0.6211438     0.8416441
H           3.1185015     0.5687041    -0.8059375
H           3.6349641    -1.4773351     1.4382148
O           2.4686417    -3.6174895    -0.0487114
O           1.8233597    -1.6968232    -1.6151512
C           7.2235965    -2.5648277    -1.5279741
H           8.1405472    -2.9045552    -2.0018552
C           6.3152590    -1.7805578    -2.2411066
H           6.5191240    -1.5130226    -3.2743055
C           5.1390285    -1.3398188    -1.6354287
H           4.4304667    -0.7488442    -2.2064784
C           4.8569253    -1.6791790    -0.3042092
C           5.7678557    -2.4778390     0.3984988
H           5.5518895    -2.7595450     1.4261066
C           6.9460749    -2.9147247    -0.2058016
H           7.6439414    -3.5302598     0.3552226
24
221_C9H12O2S_4-5-19-17 (90,) energy =    -898.7645426
C           0.8256701    -1.7657748     0.9055786
H           0.0194645    -2.4624519     0.6636935
H           0.5165529    -0.7439951     0.6812074
H           1.1098465    -1.8772871     1.9541964
S           2.2157164    -2.2525595    -0.1560762
C           3.6170481    -1.1388682     0.3629021
C           3.2625898     0.3274278     0.1026244
H           4.1341990     0.9549270     0.3139610
H           2.4440463     0.6624920     0.7472774
H           2.9626117     0.4861852    -0.9364051
H           3.6946821    -1.3256464     1.4400460
O           2.5743053    -3.6290926     0.2215248
O           1.8509934    -1.9205215    -1.5446001
C           7.2295417    -2.5837449    -1.5211771
H           8.1410330    -2.9475707    -1.9876860
C           6.4389969    -1.6356873    -2.1716833
H           6.7294039    -1.2614181    -3.1495474
C           5.2697392    -1.1656190    -1.5733767
H           4.6590251    -0.4384948    -2.0982291
C           4.8776745    -1.6356689    -0.3126716
C           5.6738030    -2.5950438     0.3281815
H           5.3700568    -2.9804016     1.2975845
C           6.8419715    -3.0646694    -0.2692239
H           7.4482683    -3.8066935     0.2429563
24
221_C9H12O2S_4-5-19-17 (105,) energy =    -898.7637854
C           0.8455608    -1.7456043     0.9661199
H           0.0614647    -2.4941724     0.8296572
H           0.4946839    -0.7702133     0.6270087
H           1.1533673    -1.7190026     2.0137160
S           2.2304585    -2.3147444    -0.0613045
C           3.6157010    -1.1222982     0.3166090
C           3.1968523     0.3050048    -0.0399234
H           4.0429892     0.9827445     0.1118201
H           2.3763331     0.6512470     0.5953640
H           2.8746847     0.3757187    -1.0823171
H           3.7298453    -1.2228064     1.4024552
O           2.6156015    -3.6378866     0.4583047
O           1.8413429    -2.1430520    -1.4712818
C           7.2481854    -2.5744449    -1.5340361
H           8.1656236    -2.9388049    -1.9883287
C           6.5630143    -1.5001018    -2.1007663
H           6.9424617    -1.0238951    -3.0007399
C           5.3854054    -1.0306374    -1.5172003
H           4.8640437    -0.1977677    -1.9769319
C           4.8769343    -1.6285151    -0.3568596
C           5.5752327    -2.7076593     0.2067146
H           5.1868232    -3.1871214     1.0996779
C           6.7488853    -3.1780606    -0.3781858
H           7.2746425    -4.0159939     0.0712479
24
221_C9H12O2S_4-5-19-17 (120,) energy =    -898.7622724
C           0.8821335    -1.7354464     1.0593900
H           0.1321931    -2.5299919     1.0642882
H           0.4717168    -0.8349922     0.6014831
H           1.2259177    -1.5467118     2.0788540
S           2.2517046    -2.3909413     0.0622503
C           3.6230796    -1.1421904     0.2767267
C           3.1389052     0.2418935    -0.1574095
H           3.9512397     0.9668491    -0.0464751
H           2.3073613     0.5869734     0.4631710
H           2.8125728     0.2374563    -1.2012222
H           3.7846990    -1.1579213     1.3618728
O           2.6607341    -3.6478512     0.7141163
O           1.8259418    -2.3804705    -1.3468369
C           7.2911132    -2.5385568    -1.5672163
H           8.2201208    -2.8824413    -2.0138895
C           6.6806351    -1.3723113    -2.0254125
H           7.1303019    -0.8001929    -2.8324611
C           5.4877843    -0.9300735    -1.4506403
H           5.0304043    -0.0224558    -1.8291538
C           4.8818325    -1.6493299    -0.4120527
C           5.5145058    -2.8147358     0.0528120
H           5.0644443    -3.3814030     0.8601268
C           6.7021747    -3.2576175    -0.5254305
H           7.1707920    -4.1655212    -0.1555406
24
221_C9H12O2S_4-5-19-17 (135,) energy =    -898.7599901
C           0.8879524    -1.6361046     1.0982749
H           0.1659948    -2.4448431     1.2339887
H           0.4420731    -0.8279628     0.5182216
H           1.2369759    -1.2874605     2.0728592
S           2.2632623    -2.3990102     0.1880962
C           3.6237097    -1.1224588     0.2388531
C           3.0964478     0.2124650    -0.2911017
H           3.8688766     0.9808299    -0.1937435
H           2.2317408     0.5580397     0.2810661
H           2.8097913     0.1330675    -1.3436917
H           3.8174676    -1.0412019     1.3166261
O           2.6754414    -3.5584935     1.0012478
O           1.8341599    -2.5770832    -1.2084626
C           7.3231511    -2.5264065    -1.5620135
H           8.2604150    -2.8665575    -1.9940050
C           6.8061382    -1.2767747    -1.8970676
H           7.3369894    -0.6323002    -2.5926765
C           5.6016404    -0.8412355    -1.3416864
H           5.2236453     0.1329167    -1.6305202
C           4.8841929    -1.6482681    -0.4471119
C           5.4283213    -2.8971209    -0.0987566
H           4.9055702    -3.5333097     0.6053650
C           6.6272969    -3.3325780    -0.6600521
H           7.0205220    -4.3070976    -0.3833717
24
221_C9H12O2S_4-5-19-17 (150,) energy =    -898.7577512
C           0.8653071    -1.5636970     1.1494508
H           0.1727416    -2.3723041     1.3948467
H           0.3863182    -0.8491664     0.4801443
H           1.2128586    -1.0863463     2.0683716
S           2.2526565    -2.3984481     0.3241770
C           3.5846156    -1.0999499     0.2140532
C           3.0102165     0.1585039    -0.4462891
H           3.7333607     0.9761679    -0.3892705
H           2.1084095     0.5068668     0.0630198
H           2.7715819    -0.0272411    -1.4972469
H           3.7928692    -0.8990510     1.2738696
O           2.6907886    -3.4430732     1.2700977
O           1.8190437    -2.7534784    -1.0369130
C           7.3037371    -2.5380379    -1.5410433
H           8.2422710    -2.8836945    -1.9657828
C           6.8923872    -1.2190334    -1.7207655
H           7.5079052    -0.5240208    -2.2857828
C           5.6843823    -0.7782251    -1.1784555
H           5.3950539     0.2529239    -1.3458844
C           4.8563481    -1.6442737    -0.4474274
C           5.2956990    -2.9648949    -0.2523237
H           4.6990435    -3.6540733     0.3324205
C           6.4981225    -3.4056739    -0.8040886
H           6.8056418    -4.4361899    -0.6480643
24
221_C9H12O2S_4-5-19-17 (165,) energy =    -898.7567574
C           0.9319157    -1.5453929     1.2751112
H           0.2681375    -2.3473592     1.6067474
H           0.4063516    -0.8833074     0.5870910
H           1.3157071    -1.0037328     2.1424107
S           2.2932580    -2.4079682     0.4360629
C           3.5740976    -1.0883090     0.1725831
C           2.9378538     0.0387560    -0.6560026
H           3.6314565     0.8759067    -0.7600531
H           2.0378570     0.4356476    -0.1784789
H           2.6770403    -0.3233126    -1.6540700
H           3.7705236    -0.7391548     1.1955396
O           2.8074421    -3.3785342     1.4205652
O           1.8000647    -2.8629902    -0.8745341
C           7.3334274    -2.4990280    -1.5264682
H           8.2759169    -2.8350290    -1.9501469
C           7.0077554    -1.1434552    -1.5130363
H           7.6966057    -0.4097173    -1.9232008
C           5.7931694    -0.7180376    -0.9759929
H           5.5751705     0.3448091    -0.9776263
C           4.8750982    -1.6324349    -0.4333618
C           5.2248125    -2.9915710    -0.4340932
H           4.5645894    -3.7295313     0.0028296
C           6.4358330    -3.4160010    -0.9830902
H           6.6746198    -4.4760191    -0.9779366
24
221_C9H12O2S_4-5-19-17 (180,) energy =    -898.7577805
C           0.9961959    -1.4514697     1.3830386
H           0.3220425    -2.2279014     1.7524404
H           0.4725658    -0.8054945     0.6779511
H           1.4020924    -0.8842730     2.2233778
S           2.3328846    -2.3602515     0.5564687
C           3.5617129    -1.0448686     0.1210302
C           2.9010201    -0.0716906    -0.8706037
H           3.6028019     0.7207077    -1.1421361
H           2.0139432     0.4088595    -0.4464518
H           2.6122442    -0.6033233    -1.7811469
H           3.7464755    -0.5456580     1.0810387
O           2.9274654    -3.2363253     1.5808518
O           1.7856739    -2.9317835    -0.6860137
C           7.3484069    -2.4528314    -1.4903284
H           8.2977563    -2.7818268    -1.9039851
C           7.0955707    -1.0941866    -1.2964707
H           7.8479600    -0.3538481    -1.5550034
C           5.8734882    -0.6795810    -0.7711277
H           5.7016519     0.3828692    -0.6182306
C           4.8812426    -1.6078935    -0.4148930
C           5.1465166    -2.9693010    -0.6126247
H           4.4150231    -3.7223204    -0.3492729
C           6.3699031    -3.3825706    -1.1453372
H           6.5513670    -4.4441462    -1.2891001
