24
221_C9H12O2S_0-4-5-19 (-165,) energy =    -898.7627149
C           0.7306571    -1.5236921     0.5762918
H          -0.0855697    -2.2032360     0.3192901
H           0.5965726    -0.5688631     0.0678311
H           0.7801283    -1.3980200     1.6603480
S           2.2300227    -2.3464216    -0.0331899
C           3.6567532    -1.2724582     0.5149726
C           3.3192346     0.2190658     0.3880761
H           4.2131978     0.8055286     0.6224592
H           2.5295113     0.5199019     1.0827422
H           3.0048996     0.4783382    -0.6274077
H           3.7795697    -1.5437427     1.5678078
O           2.3555688    -3.6328470     0.6714596
O           2.1456302    -2.2968002    -1.5034101
C           7.2014095    -2.4784831    -1.6448327
H           8.0980575    -2.7799712    -2.1795951
C           6.2524158    -1.6666975    -2.2691811
H           6.4046359    -1.3403911    -3.2943470
C           5.1008972    -1.2761548    -1.5872389
H           4.3618595    -0.6654848    -2.0941518
C           4.8861653    -1.6886993    -0.2644068
C           5.8377192    -2.5150236     0.3485741
H           5.6722340    -2.8557383     1.3674944
C           6.9898964    -2.9051451    -0.3334611
H           7.7187454    -3.5426832     0.1593679
24
221_C9H12O2S_0-4-5-19 (-150,) energy =    -898.7601242
C           0.7250493    -1.4439117     0.3721285
H          -0.0881516    -2.1237468     0.1066307
H           0.7185661    -0.5777925    -0.2898267
H           0.6347705    -1.1490272     1.4196330
S           2.2350456    -2.4178166     0.1074677
C           3.6823368    -1.3185327     0.5953358
C           3.3325985     0.1735957     0.5166819
H           4.2222455     0.7547736     0.7796907
H           2.5364234     0.4461192     1.2153819
H           3.0279985     0.4739840    -0.4904433
H           3.8464068    -1.6055641     1.6374536
O           2.2160229    -3.5435196     1.0573659
O           2.2917490    -2.6600993    -1.3441829
C           7.1655618    -2.4301928    -1.7086340
H           8.0478973    -2.7074191    -2.2790859
C           6.1820182    -1.6244981    -2.2862181
H           6.2931633    -1.2787907    -3.3103123
C           5.0486331    -1.2661740    -1.5587259
H           4.2836527    -0.6593111    -2.0314138
C           4.8854086    -1.7035068    -0.2367007
C           5.8722376    -2.5218167     0.3293927
H           5.7493712    -2.8798497     1.3485598
C           7.0065699    -2.8814647    -0.3983779
H           7.7627296    -3.5137151     0.0588088
24
221_C9H12O2S_0-4-5-19 (-135,) energy =    -898.7580787
C           0.7541456    -1.4015069     0.1579544
H          -0.0604927    -2.0794741    -0.1075492
H           0.8865473    -0.6558110    -0.6270182
H           0.5515043    -0.9349767     1.1231975
S           2.2162036    -2.4754604     0.2550637
C           3.6975676    -1.3777036     0.6808059
C           3.3544502     0.1175240     0.6732313
H           4.2447322     0.6776903     0.9769225
H           2.5525332     0.3584402     1.3771869
H           3.0653729     0.4752079    -0.3195041
H           3.8955143    -1.6969489     1.7074748
O           2.0241922    -3.3733727     1.4080449
O           2.3913957    -3.0229876    -1.1001397
C           7.1157079    -2.3970825    -1.7571216
H           7.9829430    -2.6489068    -2.3614550
C           6.0809841    -1.6319860    -2.3000200
H           6.1377673    -1.2920794    -3.3304915
C           4.9678634    -1.3070664    -1.5277206
H           4.1640764    -0.7279053    -1.9718385
C           4.8730251    -1.7383051    -0.1970076
C           5.9118055    -2.5137140     0.3341819
H           5.8461613    -2.8637444     1.3615536
C           7.0274165    -2.8399268    -0.4375802
H           7.8245122    -3.4396258    -0.0068149
24
221_C9H12O2S_0-4-5-19 (-120,) energy =    -898.7578063
C           0.8370612    -1.4071967    -0.1281581
H           0.0097074    -2.0955947    -0.3162272
H           1.0851827    -0.8677786    -1.0441231
H           0.5775348    -0.7239112     0.6807658
S           2.2153225    -2.4842595     0.3620023
C           3.7093510    -1.3762648     0.7146531
C           3.3466944     0.1118718     0.7664273
H           4.2335774     0.6746221     1.0753306
H           2.5558454     0.3090917     1.4965583
H           3.0309852     0.5036766    -0.2049524
H           3.9398719    -1.7164869     1.7285611
O           1.8428139    -3.0745963     1.6612265
O           2.5036813    -3.3437838    -0.7963114
C           7.0562543    -2.3648640    -1.8309648
H           7.9039177    -2.6120442    -2.4642067
C           6.0184679    -1.5722766    -2.3262077
H           6.0538586    -1.2040220    -3.3478886
C           4.9314996    -1.2540820    -1.5147291
H           4.1284719    -0.6442250    -1.9198338
C           4.8630403    -1.7215104    -0.1947818
C           5.9063776    -2.5208889     0.2887772
H           5.8636708    -2.8967848     1.3082456
C           6.9968279    -2.8397904    -0.5208321
H           7.7976041    -3.4595333    -0.1268454
24
221_C9H12O2S_0-4-5-19 (-105,) energy =    -898.7597508
C           0.9697281    -1.6040911    -0.2487472
H           0.1559056    -2.3284585    -0.3303007
H           1.3171358    -1.3251800    -1.2461568
H           0.6434891    -0.7339430     0.3206045
S           2.2837588    -2.4814708     0.6447220
C           3.7400813    -1.2917607     0.7887573
C           3.2821772     0.1678463     0.8083502
H           4.1432811     0.8064927     1.0304818
H           2.5333470     0.3282327     1.5899829
H           2.8634848     0.4977256    -0.1468271
H           4.0509496    -1.5645239     1.8035492
O           1.7932871    -2.6652835     2.0240363
O           2.6742115    -3.6422470    -0.1688917
C           6.9469932    -2.3713004    -1.8982147
H           7.7569226    -2.6475048    -2.5677795
C           6.0458751    -1.3712164    -2.2647115
H           6.1499936    -0.8649964    -3.2206664
C           5.0070924    -1.0150883    -1.4042047
H           4.3184068    -0.2306567    -1.7057788
C           4.8538060    -1.6503769    -0.1643420
C           5.7645024    -2.6551876     0.1904474
H           5.6544404    -3.1624844     1.1454807
C           6.8028875    -3.0132693    -0.6667881
H           7.4990936    -3.7938636    -0.3728193
24
221_C9H12O2S_0-4-5-19 (-90,) energy =    -898.7626965
C           1.1457613    -1.7072868    -0.4406499
H           0.3238130    -2.4226556    -0.5191648
H           1.6454546    -1.6081378    -1.4071524
H           0.7770661    -0.7477477    -0.0779282
S           2.2914546    -2.4263630     0.7671568
C           3.7590463    -1.2645465     0.8501557
C           3.3002890     0.1941285     0.8973776
H           4.1564403     0.8314837     1.1411327
H           2.5423175     0.3282493     1.6743813
H           2.8888707     0.5421497    -0.0546281
H           4.1081004    -1.5417132     1.8526456
O           1.6356477    -2.3288601     2.0851311
O           2.7336547    -3.7308036     0.2515525
C           6.8531896    -2.3529506    -1.9664844
H           7.6347267    -2.6316907    -2.6680077
C           5.9834271    -1.3043966    -2.2656134
H           6.0843380    -0.7614317    -3.2015436
C           4.9818707    -0.9449719    -1.3623716
H           4.3206823    -0.1190551    -1.6092362
C           4.8357125    -1.6257461    -0.1456569
C           5.7150400    -2.6799715     0.1413044
H           5.6064212    -3.2251663     1.0746486
C           6.7152897    -3.0404674    -0.7587757
H           7.3871948    -3.8592854    -0.5168419
24
221_C9H12O2S_0-4-5-19 (-75,) energy =    -898.7650390
C           1.3378644    -1.8468583    -0.6038085
H           0.5063345    -2.5514801    -0.6777373
H           1.9723138    -1.9207404    -1.4895834
H           0.9602600    -0.8334408    -0.4625735
S           2.2796561    -2.3584892     0.8572414
C           3.7669616    -1.2323808     0.9157280
C           3.3293238     0.2323761     0.9804360
H           4.2023394     0.8623311     1.1800302
H           2.6065150     0.3729458     1.7878464
H           2.8761221     0.5809777     0.0473540
H           4.1444782    -1.5217762     1.9048063
O           1.4653708    -2.0315035     2.0426186
O           2.7453596    -3.7368055     0.6375003
C           6.7335597    -2.3456507    -2.0299496
H           7.4823319    -2.6310116    -2.7638118
C           5.8998861    -1.2529183    -2.2663947
H           5.9960750    -0.6807702    -3.1852744
C           4.9406062    -0.8852260    -1.3210523
H           4.3098635    -0.0235595    -1.5193665
C           4.8010648    -1.6022049    -0.1239651
C           5.6449449    -2.7006410     0.1005916
H           5.5391201    -3.2759179     1.0154014
C           6.6022160    -3.0685220    -0.8421906
H           7.2465660    -3.9216281    -0.6486814
24
221_C9H12O2S_0-4-5-19 (-60,) energy =    -898.7661474
C           1.5329864    -2.0513537    -0.7012734
H           0.6737269    -2.7246823    -0.7421950
H           2.2629644    -2.3189440    -1.4665427
H           1.2026576    -1.0165384    -0.8075892
S           2.2614467    -2.2960142     0.9390607
C           3.7717571    -1.2023116     0.9816295
C           3.3559387     0.2681720     1.0598998
H           4.2459738     0.8920123     1.1930389
H           2.6853062     0.4228549     1.9072966
H           2.8418669     0.6085240     0.1550891
H           4.1750887    -1.5071753     1.9555156
O           1.3134802    -1.7678746     1.9369569
O           2.7148890    -3.6949333     1.0221616
C           6.6263556    -2.3216440    -2.0754562
H           7.3474192    -2.6074130    -2.8364116
C           5.8629828    -1.1648388    -2.2307174
H           5.9870717    -0.5430010    -3.1132600
C           4.9390896    -0.7957796    -1.2509540
H           4.3634135     0.1147637    -1.3862301
C           4.7653560    -1.5763744    -0.0988730
C           5.5402991    -2.7384117     0.0455941
H           5.4050910    -3.3608700     0.9245148
C           6.4609376    -3.1076065    -0.9328929
H           7.0512712    -4.0101928    -0.8012112
24
221_C9H12O2S_0-4-5-19 (-45,) energy =    -898.7658564
C           1.7372556    -2.2821770    -0.7433497
H           0.8203528    -2.8761039    -0.7490575
H           2.5107937    -2.7628238    -1.3419469
H           1.5300542    -1.2709742    -1.0996793
S           2.2577482    -2.2270006     0.9911116
C           3.7971652    -1.1658320     1.0295340
C           3.4119654     0.3101370     1.1368705
H           4.3170631     0.9172508     1.2446973
H           2.7712872     0.4687592     2.0057781
H           2.8689307     0.6651640     0.2548506
H           4.2195495    -1.5015160     1.9842838
O           1.2055502    -1.5334245     1.7554155
O           2.6670727    -3.5917161     1.3705718
C           6.5251625    -2.2837425    -2.1434972
H           7.2133597    -2.5700905    -2.9340730
C           5.8326352    -1.0754735    -2.2189491
H           5.9793669    -0.4141527    -3.0686881
C           4.9502973    -0.7055334    -1.2019648
H           4.4289680     0.2435550    -1.2769582
C           4.7487190    -1.5367533    -0.0910138
C           5.4546277    -2.7497060    -0.0244105
H           5.2978525    -3.4090035     0.8239444
C           6.3321089    -3.1202364    -1.0417245
H           6.8688837    -4.0622957    -0.9710471
24
221_C9H12O2S_0-4-5-19 (-30,) energy =    -898.7643010
C           1.8846870    -2.4964003    -0.8184751
H           0.9388987    -3.0427605    -0.8443762
H           2.6915848    -3.1017992    -1.2294515
H           1.7871501    -1.5506683    -1.3552337
S           2.1876462    -2.1811963     0.9406186
C           3.7861991    -1.1938179     1.0506139
C           3.4661389     0.2886076     1.2439070
H           4.3984898     0.8462602     1.3839026
H           2.8331981     0.4287112     2.1216985
H           2.9351269     0.7154141     0.3877361
H           4.1866481    -1.6096082     1.9814525
O           1.0817223    -1.3434654     1.4380337
O           2.4702126    -3.4875651     1.5655822
C           6.4626270    -2.2447884    -2.1850430
H           7.1362553    -2.5174459    -2.9927533
C           5.7860468    -1.0253375    -2.2164788
H           5.9311890    -0.3423756    -3.0491748
C           4.9214289    -0.6723409    -1.1784951
H           4.4107812     0.2846313    -1.2198541
C           4.7228512    -1.5326974    -0.0899105
C           5.4138683    -2.7558461    -0.0663281
H           5.2620524    -3.4347058     0.7686684
C           6.2730509    -3.1101991    -1.1049883
H           6.7989810    -4.0602692    -1.0677982
24
221_C9H12O2S_0-4-5-19 (-15,) energy =    -898.7626821
C           1.9500438    -2.6173060    -0.8235752
H           0.9593218    -3.0752822    -0.8735456
H           2.7253064    -3.3516808    -1.0400211
H           2.0104135    -1.7694610    -1.5075951
S           2.1001289    -2.0469524     0.8905851
C           3.7873932    -1.2059130     1.0646742
C           3.5774387     0.2788936     1.3644659
H           4.5511086     0.7533491     1.5276766
H           2.9669713     0.4078189     2.2603562
H           3.0672441     0.7984703     0.5492232
H           4.1490665    -1.7175261     1.9617111
O           1.0472226    -1.0367325     1.1010751
O           2.1565270    -3.2535032     1.7377279
C           6.4247455    -2.2001296    -2.2174320
H           7.0889876    -2.4579392    -3.0376319
C           5.6982868    -1.0090479    -2.2505301
H           5.7953266    -0.3348624    -3.0972329
C           4.8462471    -0.6741425    -1.1969632
H           4.2939299     0.2598495    -1.2381550
C           4.7087447    -1.5250027    -0.0907415
C           5.4488445    -2.7180650    -0.0668615
H           5.3527904    -3.3858554     0.7859955
C           6.2976732    -3.0548948    -1.1204129
H           6.8640718    -3.9813235    -1.0811609
24
221_C9H12O2S_0-4-5-19 (0,) energy =    -898.7625155
C           1.9732560    -2.7521848    -0.8005441
H           0.9532697    -3.1341561    -0.8870509
H           2.6917057    -3.5721739    -0.8219590
H           2.1798967    -2.0304285    -1.5909598
S           2.0134205    -1.9314805     0.8149577
C           3.7638667    -1.2508131     1.0648316
C           3.6507307     0.2178142     1.4787574
H           4.6536475     0.6092877     1.6792727
H           3.0470801     0.3205020     2.3837947
H           3.1804358     0.8270218     0.7035554
H           4.0773577    -1.8528442     1.9225314
O           1.0803245    -0.7929202     0.7254422
O           1.8220429    -2.9723406     1.8421922
C           6.4128185    -2.1335430    -2.2381405
H           7.0809988    -2.3608858    -3.0641162
C           5.6186707    -0.9857419    -2.2728750
H           5.6667662    -0.3155703    -3.1269074
C           4.7627227    -0.6903354    -1.2114819
H           4.1547204     0.2089330    -1.2522737
C           4.6857144    -1.5389487    -0.0964501
C           5.4916204    -2.6872999    -0.0722055
H           5.4498870    -3.3505010     0.7888784
C           6.3477468    -2.9836407    -1.1328164
H           6.9672061    -3.8754132    -1.0922963
24
221_C9H12O2S_0-4-5-19 (15,) energy =    -898.7640480
C           2.0598624    -3.0904811     0.0598172
H           1.0551581    -3.5199201     0.0558768
H           2.6204303    -3.4450247     0.9263895
H           2.5822012    -3.3250300    -0.8669613
S           1.7908320    -1.3020589     0.1744920
C           3.4871109    -0.4894317     0.2745313
C           3.4107269     0.8321807    -0.4944485
H           4.3655112     1.3579910    -0.3910406
H           2.6170961     1.4689473    -0.0934741
H           3.2050636     0.6721483    -1.5549073
H           3.5546412    -0.2852424     1.3474075
O           1.1690427    -0.9012175    -1.1024847
O           1.1101761    -1.0260971     1.4524335
C           6.7317325    -3.1325878    -0.8107735
H           7.5495732    -3.7956696    -1.0789001
C           5.9359631    -2.5607717    -1.8062403
H           6.1324139    -2.7789046    -2.8524492
C           4.8890389    -1.7055154    -1.4637097
H           4.2750600    -1.2680870    -2.2462005
C           4.6170697    -1.4109159    -0.1181091
C           5.4226349    -1.9912486     0.8715565
H           5.2295134    -1.7656536     1.9179934
C           6.4731715    -2.8439561     0.5297905
H           7.0902191    -3.2791101     1.3111751
24
221_C9H12O2S_0-4-5-19 (30,) energy =    -898.7664511
C           2.0253608    -3.1003876     0.1832130
H           1.0229855    -3.5208889     0.0724760
H           2.4234782    -3.3316652     1.1732578
H           2.6857571    -3.4664510    -0.6019787
S           1.8018931    -1.3110071     0.0095666
C           3.4819460    -0.5429888     0.2880865
C           3.4597467     0.8387943    -0.3758186
H           4.4055129     1.3484383    -0.1663012
H           2.6403720     1.4448766     0.0221018
H           3.3318656     0.7592438    -1.4575763
H           3.5000001    -0.4243244     1.3763344
O           1.4238281    -1.0707497    -1.3967870
O           0.9273771    -0.8499963     1.1027336
C           6.7615604    -3.1044539    -0.8791214
H           7.5897056    -3.7450469    -1.1694854
C           5.9137230    -2.5692075    -1.8520943
H           6.0791715    -2.7946683    -2.9021233
C           4.8535401    -1.7420437    -1.4829716
H           4.1916426    -1.3388229    -2.2441688
C           4.6206230    -1.4426677    -0.1308233
C           5.4746289    -1.9887572     0.8366210
H           5.3088160    -1.7606026     1.8872342
C           6.5401780    -2.8109497     0.4668345
H           7.1957984    -3.2201862     1.2306589
24
221_C9H12O2S_0-4-5-19 (45,) energy =    -898.7680806
C           1.9167977    -3.0265697     0.3801228
H           0.9235049    -3.4420010     0.1946383
H           2.1608249    -3.0977520     1.4421671
H           2.6648903    -3.5295874    -0.2325725
S           1.8067965    -1.2840722    -0.1000875
C           3.4725578    -0.5645598     0.2968627
C           3.4882401     0.8585721    -0.2785511
H           4.4234958     1.3489910     0.0085708
H           2.6495266     1.4408993     0.1137938
H           3.4206267     0.8436630    -1.3691231
H           3.4597364    -0.5137552     1.3910132
O           1.6198222    -1.2390718    -1.5628505
O           0.8297468    -0.6309312     0.7895661
C           6.7823901    -3.0534376    -0.9451110
H           7.6201478    -3.6733532    -1.2525091
C           5.9213556    -2.5117179    -1.9024317
H           6.0858181    -2.7124374    -2.9576214
C           4.8479264    -1.7107949    -1.5135910
H           4.1730695    -1.3076655    -2.2620669
C           4.6161906    -1.4447727    -0.1544501
C           5.4827387    -1.9986777     0.7980080
H           5.3169185    -1.7968619     1.8541216
C           6.5609908    -2.7940719     0.4077996
H           7.2255561    -3.2093592     1.1605922
24
221_C9H12O2S_0-4-5-19 (60,) energy =    -898.7679287
C           1.7923201    -2.9569971     0.6013760
H           0.8302993    -3.4005569     0.3346134
H           1.8605757    -2.8298108     1.6835710
H           2.6126881    -3.5665686     0.2195677
S           1.8226784    -1.3298403    -0.1920773
C           3.4734635    -0.6241963     0.2808387
C           3.4984024     0.8271307    -0.2228638
H           4.4284304     1.3018307     0.1046004
H           2.6502984     1.3886385     0.1770936
H           3.4572691     0.8652656    -1.3149201
H           3.4388250    -0.6254460     1.3760656
O           1.7812546    -1.5291128    -1.6520615
O           0.7978732    -0.4997842     0.4669297
C           6.8418684    -3.0050065    -1.0180419
H           7.6957384    -3.5959767    -1.3379887
C           6.0006249    -2.4164959    -1.9650687
H           6.1959207    -2.5526843    -3.0252655
C           4.9058406    -1.6532083    -1.5611821
H           4.2464629    -1.2187078    -2.3045982
C           4.6334852    -1.4698597    -0.1962502
C           5.4807923    -2.0706928     0.7458094
H           5.2843868    -1.9334682     1.8071732
C           6.5792683    -2.8301510     0.3408789
H           7.2274022    -3.2823635     1.0867065
24
221_C9H12O2S_0-4-5-19 (75,) energy =    -898.7663134
C           1.6584229    -2.8523952     0.8051303
H           0.7319592    -3.3415993     0.4958867
H           1.5800106    -2.5144064     1.8399936
H           2.5059624    -3.5272576     0.6678594
S           1.8499470    -1.4103584    -0.2743246
C           3.4825189    -0.6839140     0.2613126
C           3.4938554     0.7883365    -0.1785751
H           4.4106166     1.2598869     0.1890023
H           2.6287110     1.3202687     0.2227349
H           3.4785887     0.8773716    -1.2686641
H           3.4316423    -0.7305134     1.3550428
O           1.9418945    -1.8790826    -1.6675240
O           0.8037559    -0.4449610     0.1101518
C           6.9120491    -2.9444536    -1.0874401
H           7.7812886    -3.5053912    -1.4198342
C           6.1019135    -2.2887968    -2.0175953
H           6.3363767    -2.3439769    -3.0771224
C           4.9873420    -1.5644734    -1.5983047
H           4.3529297    -1.0800915    -2.3321644
C           4.6644146    -1.4852860    -0.2348211
C           5.4802795    -2.1534029     0.6894017
H           5.2451198    -2.0968216     1.7503744
C           6.5982942    -2.8757950     0.2697704
H           7.2215825    -3.3807963     1.0027995
24
221_C9H12O2S_0-4-5-19 (90,) energy =    -898.7638770
C           1.4746237    -2.7190874     0.9551457
H           0.5589118    -3.2207042     0.6341031
H           1.3075257    -2.1929736     1.8967852
H           2.2893477    -3.4420545     1.0394896
S           1.8681675    -1.5109050    -0.3374860
C           3.4885538    -0.7700899     0.2571283
C           3.4893121     0.7215532    -0.1082433
H           4.3978097     1.1804495     0.2949339
H           2.6145995     1.2277259     0.3042755
H           3.4876458     0.8687621    -1.1920528
H           3.4302432    -0.8718940     1.3467485
O           2.0729777    -2.2359457    -1.6021261
O           0.8443380    -0.4529715    -0.2525501
C           6.9733260    -2.8943523    -1.1641723
H           7.8569306    -3.4201953    -1.5154944
C           6.1595965    -2.2087989    -2.0695141
H           6.4049319    -2.2056926    -3.1279907
C           5.0264253    -1.5301901    -1.6259269
H           4.3915179    -1.0214227    -2.3431189
C           4.6880899    -1.5261665    -0.2642352
C           5.5076113    -2.2233940     0.6338955
H           5.2599641    -2.2254776     1.6936124
C           6.6444716    -2.9012430     0.1910289
H           7.2703392    -3.4304987     0.9044903
24
221_C9H12O2S_0-4-5-19 (105,) energy =    -898.7616734
C           1.2996323    -2.5533973     1.0514645
H           0.3772699    -3.0433968     0.7313405
H           1.0934906    -1.8577048     1.8672767
H           2.0408443    -3.3015588     1.3417997
S           1.9040738    -1.6273736    -0.3857503
C           3.5058345    -0.8537435     0.2550693
C           3.4737577     0.6513868    -0.0418432
H           4.3677294     1.1123951     0.3910567
H           2.5848427     1.1221890     0.3825995
H           3.4752383     0.8481891    -1.1172025
H           3.4496496    -1.0087533     1.3383949
O           2.2024385    -2.5940316    -1.4543320
O           0.9380788    -0.5390005    -0.6251333
C           7.0456391    -2.8271302    -1.2415907
H           7.9431313    -3.3153284    -1.6115447
C           6.2119795    -2.1314574    -2.1206201
H           6.4557978    -2.0827813    -3.1782969
C           5.0611105    -1.5023925    -1.6508903
H           4.4135978    -0.9816850    -2.3490707
C           4.7242975    -1.5589420    -0.2904201
C           5.5633882    -2.2655652     0.5809179
H           5.3168931    -2.3169958     1.6396378
C           6.7182285    -2.8936044     0.1123165
H           7.3593034    -3.4318927     0.8052046
24
221_C9H12O2S_0-4-5-19 (120,) energy =    -898.7608304
C           1.1369841    -2.3468985     1.1075752
H           0.2092925    -2.8220356     0.7803776
H           0.9153283    -1.5057232     1.7681310
H           1.7818993    -3.0794900     1.5974338
S           1.9503768    -1.7429834    -0.3971090
C           3.5241864    -0.9304365     0.2706775
C           3.4457668     0.5827687     0.0406822
H           4.3328308     1.0522363     0.4789412
H           2.5530498     1.0130490     0.5013453
H           3.4165395     0.8238454    -1.0245144
H           3.4786913    -1.1376291     1.3459917
O           2.3064493    -2.9230087    -1.2002500
O           1.0907623    -0.6908652    -0.9701973
C           7.1015580    -2.7647342    -1.3079736
H           8.0077028    -3.2186228    -1.6998200
C           6.2507441    -2.0523729    -2.1563993
H           6.4897489    -1.9554320    -3.2118491
C           5.0890702    -1.4674639    -1.6570038
H           4.4308312    -0.9263726    -2.3306440
C           4.7580012    -1.5871217    -0.2995402
C           5.6142579    -2.3095030     0.5403645
H           5.3705743    -2.4114180     1.5959223
C           6.7804287    -2.8926527     0.0432059
H           7.4351509    -3.4452066     0.7116731
24
221_C9H12O2S_0-4-5-19 (135,) energy =    -898.7618563
C           1.0102087    -2.1603298     1.0677396
H           0.0847581    -2.6233147     0.7175420
H           0.7907100    -1.2049298     1.5502033
H           1.5370636    -2.8361016     1.7440124
S           2.0271971    -1.8909226    -0.4109973
C           3.5500066    -1.0214662     0.2750534
C           3.4043313     0.4921733     0.0960395
H           4.2771980     0.9885704     0.5329340
H           2.5052210     0.8707621     0.5918169
H           3.3377354     0.7628207    -0.9598422
H           3.5168492    -1.2698855     1.3425288
O           2.4136455    -3.2237037    -0.8990928
O           1.3114233    -0.9541002    -1.2964784
C           7.1684712    -2.7043571    -1.3747103
H           8.0831650    -3.1224466    -1.7860314
C           6.3044087    -1.9704032    -2.1902736
H           6.5410948    -1.8198585    -3.2399650
C           5.1324453    -1.4310160    -1.6636532
H           4.4624120    -0.8705647    -2.3100229
C           4.8044617    -1.6213652    -0.3136236
C           5.6728244    -2.3655714     0.4931181
H           5.4295546    -2.5249800     1.5413952
C           6.8496979    -2.9010537    -0.0309038
H           7.5148008    -3.4724872     0.6108568
24
221_C9H12O2S_0-4-5-19 (150,) energy =    -898.7637864
C           0.8902039    -1.9838100     0.9829557
H          -0.0135792    -2.4612866     0.5971972
H           0.6737402    -0.9515508     1.2664915
H           1.2863305    -2.5540053     1.8251463
S           2.0908838    -2.0251917    -0.3779171
C           3.5715107    -1.1252982     0.3204735
C           3.3816665     0.3880615     0.1836000
H           4.2442079     0.8989710     0.6238362
H           2.4801755     0.7314442     0.7020418
H           3.2962420     0.6814118    -0.8648671
H           3.5587914    -1.4092096     1.3795939
O           2.4491667    -3.4387017    -0.5706305
O           1.5490195    -1.2313126    -1.4963160
C           7.2073738    -2.6526493    -1.4408329
H           8.1260917    -3.0318257    -1.8800191
C           6.3009682    -1.9333453    -2.2224965
H           6.5084795    -1.7556615    -3.2741343
C           5.1238023    -1.4431105    -1.6596970
H           4.4172140    -0.8980934    -2.2792984
C           4.8348767    -1.6701583    -0.3061596
C           5.7437961    -2.4018306     0.4663548
H           5.5272329    -2.5927132     1.5149664
C           6.9255120    -2.8865163    -0.0945419
H           7.6227976    -3.4492591     0.5201256
24
221_C9H12O2S_0-4-5-19 (165,) energy =    -898.7649745
C           0.7911593    -1.7772125     0.9269831
H          -0.0730828    -2.3381075     0.5632846
H           0.5614493    -0.7107792     0.9480724
H           1.0842642    -2.1431366     1.9131287
S           2.1201045    -2.1139002    -0.2631533
C           3.5872026    -1.1943389     0.4155311
C           3.3696422     0.3194341     0.3134530
H           4.2545307     0.8352388     0.6998356
H           2.5051547     0.6483303     0.8996731
H           3.2135472     0.6247502    -0.7239064
H           3.6160423    -1.5038902     1.4665181
O           2.4069958    -3.5542114    -0.1816105
O           1.7355652    -1.4935268    -1.5448513
C           7.1932108    -2.5887640    -1.5145025
H           8.1052257    -2.9338718    -1.9939959
C           6.2513130    -1.8583690    -2.2416140
H           6.4247167    -1.6386734    -3.2915129
C           5.0817592    -1.4104933    -1.6286107
H           4.3459127    -0.8611619    -2.2073519
C           4.8390450    -1.6912019    -0.2758628
C           5.7825901    -2.4363428     0.4415271
H           5.5987311    -2.6712613     1.4871983
C           6.9553264    -2.8783385    -0.1704424
H           7.6793907    -3.4516011     0.4020949
24
221_C9H12O2S_0-4-5-19 (180,) energy =    -898.7645649
C           0.7315184    -1.6318355     0.7906208
H          -0.0988569    -2.2804489     0.5012281
H           0.5125456    -0.5990782     0.5180698
H           0.9233466    -1.7323803     1.8613924
S           2.1581731    -2.2383551    -0.1542069
C           3.6035792    -1.2504686     0.4737750
C           3.3265290     0.2548837     0.3722837
H           4.2249507     0.8039881     0.6712497
H           2.5093344     0.5657849     1.0306975
H           3.0740952     0.5437140    -0.6516854
H           3.6802201    -1.5542201     1.5231165
O           2.3776435    -3.6409989     0.2318152
O           1.9172589    -1.8711385    -1.5616926
C           7.1842120    -2.5232436    -1.5861842
H           8.0897985    -2.8395227    -2.0967774
C           6.2324166    -1.7544134    -2.2584776
H           6.3915077    -1.4761370    -3.2966998
C           5.0698048    -1.3436475    -1.6071881
H           4.3269306    -0.7670510    -2.1474566
C           4.8460302    -1.6970890    -0.2683459
C           5.7999821    -2.4812660     0.3931842
H           5.6285379    -2.7749507     1.4257937
C           6.9642282    -2.8882850    -0.2575352
H           7.6953996    -3.4924613     0.2725553
