30
022_C10H16N3O+_0-10-11-23 (-165,) energy =    -629.9482911
C           0.0764234    -0.3832541    -0.9807821
H          -0.0311795    -0.9672781    -1.8938096
C          -1.1008906     0.0664056    -0.3342069
H          -2.0839308    -0.1590826    -0.7279392
C          -0.9576233     0.8000716     0.8080826
H          -1.7846253     1.1978133     1.3849252
N           0.2926329     1.0653354     1.2771235
H           0.4127761     1.6170432     2.1205265
C           1.5005159     0.6673488     0.6937886
O           2.5566792     1.0090917     1.2608983
C           1.3466048    -0.1198409    -0.5143198
C           2.5236246    -0.5887340    -1.3847547
H           2.5746229     0.0709209    -2.2605005
H           2.2553760    -1.5770790    -1.7852059
N           5.7909274    -0.0472022     1.1546028
H           6.6285047    -0.5135446     0.7827153
H           6.0699753     0.3890937     2.0389496
C           5.3469697     1.0334629     0.1736806
H           6.2101146     1.6838046     0.0079168
H           4.5248795     1.5598323     0.6573453
C           4.8651790     0.3466869    -1.1094184
H           5.7380984    -0.0976211    -1.6267849
H           4.4651188     1.1179386    -1.7725772
N           3.8630684    -0.6503159    -0.8418347
C           4.2661851    -1.6804901     0.0790441
H           5.0894381    -2.2908781    -0.3408039
H           3.4336642    -2.3631517     0.2706095
C           4.7163394    -1.0953559     1.4234982
H           5.1614209    -1.8439248     2.0845544
H           3.8985353    -0.5608354     1.9069786
30
022_C10H16N3O+_0-10-11-23 (-150,) energy =    -629.9497592
C           0.1127249    -0.4972760    -0.9020156
H           0.0098915    -1.1383966    -1.7758604
C          -1.0606089    -0.1324204    -0.1953146
H          -2.0381679    -0.4786906    -0.5062241
C          -0.9227262     0.6812068     0.8919674
H          -1.7495407     1.0285874     1.5008017
N           0.3197909     1.0997892     1.2619541
H           0.4313570     1.7184349     2.0588466
C           1.5212867     0.7942988     0.6140646
O           2.5752865     1.2665723     1.0788554
C           1.3733246    -0.0755682    -0.5387729
C           2.5451190    -0.4085645    -1.4622155
H           2.6433894     0.4000430    -2.1971137
H           2.2575384    -1.2989732    -2.0415981
N           5.7494115    -0.1016645     1.1768439
H           6.5581287    -0.6471917     0.8515652
H           6.0286082     0.3308741     2.0630323
C           5.4399240     0.9870806     0.1541856
H           6.3603600     1.5605294     0.0146728
H           4.6435826     1.5917526     0.5864422
C           4.9592213     0.3093741    -1.1344057
H           5.8135525    -0.2165851    -1.6028730
H           4.6540971     1.0940913    -1.8311141
N           3.8673886    -0.5959927    -0.8935250
C           4.1403610    -1.6304903     0.0685504
H           4.9275952    -2.3182819    -0.2956958
H           3.2455066    -2.2362615     0.2365130
C           4.5773471    -1.0458948     1.4190661
H           4.9229263    -1.8093841     2.1213835
H           3.7906135    -0.4278494     1.8519424
30
022_C10H16N3O+_0-10-11-23 (-135,) energy =    -629.9509657
C           0.1810883    -0.6226537    -0.8559925
H           0.1066640    -1.3071368    -1.6988044
C          -0.9877262    -0.3524682    -0.0988127
H          -1.9359960    -0.8157771    -0.3402844
C          -0.8883966     0.5282765     0.9393694
H          -1.7197094     0.8182871     1.5717148
N           0.3169592     1.0959776     1.2277913
H           0.3958360     1.7629939     1.9888350
C           1.5122183     0.8783249     0.5357995
O           2.5412935     1.4554677     0.9290311
C           1.3999553    -0.0428577    -0.5811520
C           2.5714147    -0.2631923    -1.5252867
H           2.7152276     0.6471554    -2.1194970
H           2.2717664    -1.0454791    -2.2387971
N           5.6551460    -0.1274585     1.2245105
H           6.4536996    -0.7162672     0.9542657
H           5.9051545     0.3086688     2.1176583
C           5.4527838     0.9525878     0.1665141
H           6.4016163     1.4882013     0.0746276
H           4.6556941     1.5962776     0.5379519
C           5.0244641     0.2645239    -1.1350991
H           5.8775734    -0.3179655    -1.5309184
H           4.8096330     1.0416408    -1.8725930
N           3.8746945    -0.5836472    -0.9526683
C           4.0371384    -1.6027455     0.0505232
H           4.8076262    -2.3360095    -0.2523783
H           3.1049700    -2.1595421     0.1790184
C           4.4272439    -1.0101499     1.4141340
H           4.6939689    -1.7750507     2.1487207
H           3.6517246    -0.3467545     1.7966044
30
022_C10H16N3O+_0-10-11-23 (-120,) energy =    -629.9510692
C           0.2630571    -0.6570959    -0.7846584
H           0.2073487    -1.3647618    -1.6093220
C          -0.8869762    -0.4631299     0.0242510
H          -1.8030397    -1.0109082    -0.1573546
C          -0.8174167     0.4589841     1.0287536
H          -1.6434421     0.7012637     1.6875904
N           0.3465864     1.1355938     1.2463807
H           0.4028781     1.8256751     1.9887160
C           1.5267305     0.9816616     0.5141828
O           2.5366341     1.6222102     0.8542763
C           1.4351420     0.0377982    -0.5851402
C           2.5962307    -0.1023582    -1.5488000
H           2.7986018     0.8796085    -1.9906262
H           2.2600199    -0.7500555    -2.3710462
N           5.5647638    -0.1419122     1.2405539
H           6.3555098    -0.7651710     1.0326327
H           5.7807875     0.3135591     2.1329667
C           5.4579628     0.9098196     0.1408319
H           6.4279671     1.4116853     0.0863387
H           4.6655612     1.5925080     0.4500992
C           5.0784872     0.1909969    -1.1595555
H           5.9199342    -0.4505982    -1.4760084
H           4.9535634     0.9436226    -1.9418037
N           3.8785949    -0.6023304    -1.0312811
C           3.9447877    -1.5864624     0.0203882
H           4.6971039    -2.3558494    -0.2266594
H           2.9867589    -2.1031541     0.1188871
C           4.2967963    -0.9741992     1.3879687
H           4.4982315    -1.7319879     2.1503454
H           3.5346765    -0.2730400     1.7260647
30
022_C10H16N3O+_0-10-11-23 (-105,) energy =    -629.9501639
C           0.3220626    -0.6726989    -0.7950434
H           0.3014120    -1.3611875    -1.6372179
C          -0.8288786    -0.5652458     0.0291320
H          -1.7124327    -1.1631225    -0.1556194
C          -0.8081491     0.3423056     1.0497510
H          -1.6439733     0.5208413     1.7165433
N           0.3132813     1.0854863     1.2759490
H           0.3326603     1.7615312     2.0330339
C           1.4961394     1.0081513     0.5381965
O           2.4818143     1.6813333     0.8882286
C           1.4471402     0.0932737    -0.5878523
C           2.6269563     0.0602941    -1.5287433
H           2.9096129     1.0980559    -1.7371476
H           2.2865016    -0.3748669    -2.4772568
N           5.5187568    -0.1086347     1.1923484
H           6.2975734    -0.7631461     1.0463825
H           5.7265177     0.4036840     2.0555221
C           5.4604819     0.8624404     0.0184212
H           6.4375777     1.3495240    -0.0430402
H           4.6734896     1.5797769     0.2616884
C           5.1055094     0.0523425    -1.2347400
H           5.9151206    -0.6648117    -1.4480869
H           5.0643643     0.7313311    -2.0902012
N           3.8522546    -0.6634915    -1.1012205
C           3.8534837    -1.5642079     0.0316621
H           4.5679740    -2.3800300    -0.1636381
H           2.8720580    -2.0288318     0.1504293
C           4.2237119    -0.8927809     1.3683593
H           4.3953278    -1.6196095     2.1673561
H           3.4876848    -0.1496204     1.6718974
30
022_C10H16N3O+_0-10-11-23 (-90,) energy =    -629.9509400
C           0.2924433    -0.3960981    -1.1041271
H           0.4653344    -0.7649427    -2.1126678
C          -1.0003064    -0.5374635    -0.5345304
H          -1.8083401    -1.0095119    -1.0789566
C          -1.2095667    -0.0404550     0.7207596
H          -2.1634567    -0.0834579     1.2341494
N          -0.1865978     0.5521089     1.4000164
H          -0.3400547     0.9229686     2.3322363
C           1.1191301     0.7038432     0.9241137
O           1.9819056     1.2234042     1.6478880
C           1.3261897     0.2041994    -0.4251236
C           2.6811708     0.4393971    -1.0401403
H           3.0569739     1.3957147    -0.6433718
H           2.5712466     0.5558136    -2.1237870
N           5.9338920    -0.0253883     0.8357207
H           6.4872452    -0.8900225     0.7861664
H           6.4558360     0.6160360     1.4420675
C           5.8144039     0.5615478    -0.5629431
H           6.8278023     0.6861055    -0.9536109
H           5.3520517     1.5430906    -0.4395282
C           4.9565163    -0.3835701    -1.4233249
H           5.4991170    -1.3294982    -1.5681208
H           4.8399535     0.0688117    -2.4132459
N           3.6499574    -0.6703043    -0.8513959
C           3.7878692    -1.2286426     0.4876281
H           4.2800897    -2.2086417     0.3987715
H           2.8017972    -1.4092750     0.9191080
C           4.5752970    -0.3389988     1.4580347
H           4.7706509    -0.8280053     2.4161624
H           4.0525417     0.6064871     1.6217501
30
022_C10H16N3O+_0-10-11-23 (-75,) energy =    -629.9499301
C           0.3655639    -0.4753062    -1.0357092
H           0.5806213    -0.9272174    -2.0014528
C          -0.9181130    -0.6633060    -0.4577409
H          -1.6823183    -1.2450935    -0.9574898
C          -1.1770766    -0.0715057     0.7463585
H          -2.1308913    -0.1398170     1.2571507
N          -0.2070642     0.6505459     1.3770795
H          -0.3883019     1.0646727     2.2857897
C           1.0940946     0.8398296     0.9013079
O           1.9327658     1.4221047     1.6049704
C           1.3318364     0.2845212    -0.4216780
C           2.6984813     0.5206878    -1.0084675
H           3.1061032     1.4233023    -0.5315712
H           2.6067117     0.7294997    -2.0807086
N           5.8751791    -0.0874489     0.8384187
H           6.4173970    -0.9588685     0.7877371
H           6.3921396     0.5366267     1.4669726
C           5.7990676     0.5247989    -0.5534805
H           6.8233232     0.6253250    -0.9219331
H           5.3659531     1.5182614    -0.4217587
C           4.9314626    -0.3767663    -1.4510238
H           5.4513993    -1.3312557    -1.6163287
H           4.8388491     0.1076675    -2.4283475
N           3.6077178    -0.6495952    -0.9060790
C           3.7238807    -1.2536111     0.4183296
H           4.2110433    -2.2330763     0.3063239
H           2.7287918    -1.4406109     0.8273111
C           4.4996348    -0.3958230     1.4259061
H           4.6691843    -0.9086917     2.3764090
H           3.9887635     0.5549627     1.6045345
30
022_C10H16N3O+_0-10-11-23 (-60,) energy =    -629.9470695
C           0.4439496    -0.5538352    -0.9492045
H           0.7226802    -1.0925325    -1.8521815
C          -0.8416614    -0.7678611    -0.3827253
H          -1.5496276    -1.4499058    -0.8364593
C          -1.1754344    -0.0740156     0.7461545
H          -2.1382906    -0.1529811     1.2381790
N          -0.2718598     0.7685157     1.3246133
H          -0.4972317     1.2404849     2.1943941
C           1.0335370     0.9816262     0.8688436
O           1.8317235     1.6376239     1.5520103
C           1.3298298     0.3453444    -0.4072245
C           2.7136905     0.5905187    -0.9492804
H           3.1367693     1.4318153    -0.3852798
H           2.6498214     0.9031009    -1.9990802
N           5.8440910    -0.1368551     0.8243916
H           6.3781204    -1.0119379     0.7549764
H           6.3624919     0.4651858     1.4731865
C           5.7863452     0.5128989    -0.5524731
H           6.8143947     0.6031082    -0.9126485
H           5.3733818     1.5111899    -0.3963043
C           4.9066863    -0.3453627    -1.4807598
H           5.4105498    -1.3015371    -1.6796416
H           4.8218189     0.1753458    -2.4399482
N           3.5763201    -0.6174344    -0.9465757
C           3.6890189    -1.2747695     0.3548794
H           4.1749815    -2.2499283     0.2093962
H           2.6917396    -1.4725336     0.7538831
C           4.4624958    -0.4524438     1.3938133
H           4.6218059    -0.9944869     2.3296451
H           3.9639003     0.4993593     1.6017366
30
022_C10H16N3O+_0-10-11-23 (-45,) energy =    -629.9446425
C           0.9259980     0.7820845     0.5719220
H           1.5998850     1.4208952     1.1389908
C          -0.3008824     1.3208947     0.0947871
H          -0.5794097     2.3490002     0.2892334
C          -1.1360156     0.4983890    -0.6068091
H          -2.0960536     0.8127544    -1.0010607
N          -0.7806509    -0.7943616    -0.8471780
H          -1.3997637    -1.4074428    -1.3672784
C           0.4111320    -1.4080142    -0.4209596
O           0.6400854    -2.5819391    -0.7038505
C           1.2845223    -0.5225111     0.3451497
C           2.5616420    -1.1409957     0.8620072
H           2.6859558    -2.1243313     0.3843215
H           2.4810545    -1.3176237     1.9421968
N           6.3937999     0.5049473    -0.0972399
H           6.7866196    -0.3608521    -0.4885509
H           7.1298292     1.2162887    -0.1685029
C           5.1820383     0.9092133    -0.9256048
H           5.5123570     0.9983871    -1.9631179
H           4.8661614     1.8840361    -0.5484744
C           4.0914616    -0.1375221    -0.7455319
H           4.4131975    -1.0961386    -1.2013230
H           3.2090132     0.1973462    -1.2979848
N           3.7478240    -0.2770760     0.6654330
C           4.8957711    -0.7517088     1.4264971
H           5.2618258    -1.7414980     1.0838051
H           4.6155351    -0.8655069     2.4785011
C           6.0311672     0.2631916     1.3600942
H           6.9340773    -0.0826677     1.8686617
H           5.7224039     1.2301485     1.7624949
30
022_C10H16N3O+_0-10-11-23 (-30,) energy =    -629.9441785
C           1.0184742     0.7920286     0.3651370
H           1.7791072     1.4531585     0.7746068
C          -0.2316750     1.3374553    -0.0433401
H          -0.4387062     2.3968188     0.0422598
C          -1.1780471     0.4859657    -0.5370375
H          -2.1611473     0.8048777    -0.8649612
N          -0.9132479    -0.8472440    -0.6382020
H          -1.6156781    -1.4829872    -1.0016339
C           0.2872952    -1.4704052    -0.2588170
O           0.4287045    -2.6851139    -0.3814629
C           1.2889043    -0.5478388     0.2685400
C           2.5775844    -1.1971647     0.7139220
H           2.7152249    -2.1294520     0.1441127
H           2.4905480    -1.4962045     1.7667963
N           6.4083684     0.5650636    -0.0070174
H           6.8381142    -0.2724525    -0.4204145
H           7.1291920     1.2953151    -0.0146425
C           5.2225408     0.9810970    -0.8660397
H           5.5917825     1.1238121    -1.8842642
H           4.8706694     1.9316788    -0.4599310
C           4.1488343    -0.0946475    -0.7775305
H           4.5110442    -1.0250210    -1.2609989
H           3.2823312     0.2455568    -1.3514351
N           3.7519949    -0.3080110     0.6102788
C           4.8794022    -0.7933064     1.3950936
H           5.2817259    -1.7575781     1.0219309
H           4.5609279    -0.9618762     2.4284636
C           5.9922656     0.2479844     1.4215268
H           6.8815486    -0.1012578     1.9513046
H           5.6444207     1.1883119     1.8540918
30
022_C10H16N3O+_0-10-11-23 (-15,) energy =    -629.9434069
C           1.0851499     0.8007280     0.1722469
H           1.9043975     1.4669508     0.4324651
C          -0.1843204     1.3549947    -0.1618922
H          -0.3450024     2.4257551    -0.1747136
C          -1.2064904     0.5005338    -0.4582653
H          -2.2064534     0.8288457    -0.7186168
N          -1.0013084    -0.8477290    -0.4357566
H          -1.7598134    -1.4865537    -0.6506680
C           0.2107109    -1.4775530    -0.1141767
O           0.3058987    -2.7031553    -0.1086418
C           1.2939952    -0.5517730     0.2006305
C           2.5955594    -1.2324945     0.5495022
H           2.7349806    -2.0990617    -0.1169772
H           2.5148254    -1.6558703     1.5590985
N           6.4300123     0.6032244     0.0723549
H           6.8938667    -0.2123575    -0.3479932
H           7.1373686     1.3447742     0.1242233
C           5.2796529     1.0303828    -0.8280470
H           5.6938367     1.2121113    -1.8224904
H           4.8943809     1.9620952    -0.4086898
C           4.2204585    -0.0638494    -0.8256207
H           4.6206678    -0.9710184    -1.3230417
H           3.3763863     0.2824133    -1.4286464
N           3.7636975    -0.3330330     0.5338568
C           4.8612481    -0.8277913     1.3540410
H           5.2983502    -1.7716687     0.9682756
H           4.4983676    -1.0360007     2.3650673
C           5.9525737     0.2302598     1.4681012
H           6.8221446    -0.1222329     2.0276031
H           5.5674786     1.1491889     1.9148721
30
022_C10H16N3O+_0-10-11-23 (0,) energy =    -629.9420619
C           1.1062130     0.7936151    -0.0177077
H           1.9569807     1.4624147     0.0882715
C          -0.1818638     1.3503339    -0.2697333
H          -0.3221579     2.4183611    -0.3800558
C          -1.2472707     0.5032973    -0.3642585
H          -2.2626002     0.8342551    -0.5511307
N          -1.0683355    -0.8415435    -0.2190460
H          -1.8579227    -1.4748644    -0.2901948
C           0.1600997    -1.4711964     0.0261765
O           0.2359087    -2.6932043     0.1395889
C           1.2894932    -0.5534803     0.1330574
C           2.6040470    -1.2548324     0.3764549
H           2.7452837    -2.0413403    -0.3837795
H           2.5302865    -1.7975512     1.3265870
N           6.4422623     0.6296315     0.1710609
H           6.9437353    -0.1673496    -0.2417156
H           7.1330776     1.3798400     0.2846401
C           5.3415424     1.0647470    -0.7853105
H           5.8110732     1.2779607    -1.7484455
H           4.9182026     1.9798881    -0.3661595
C           4.3004114    -0.0439285    -0.8730053
H           4.7446872    -0.9320188    -1.3677543
H           3.4899837     0.3051852    -1.5189619
N           3.7684633    -0.3541234     0.4497271
C           4.8227918    -0.8574803     1.3198536
H           5.2967756    -1.7839760     0.9355834
H           4.4047139    -1.0973871     2.3018531
C           5.8888544     0.2124584     1.5259697
H           6.7294401    -0.1422381     2.1268407
H           5.4630692     1.1134323     1.9723838
30
022_C10H16N3O+_0-10-11-23 (15,) energy =    -629.9434073
C           1.0590798     0.7938533     0.1474184
H           1.8878023     1.4971523     0.1111210
C          -0.2330754     1.2598339     0.5264379
H          -0.4024513     2.2959250     0.7916474
C          -1.2655845     0.3673672     0.5385931
H          -2.2825963     0.6296619     0.8076510
N          -1.0491308    -0.9356449     0.1985418
H          -1.8152147    -1.6010161     0.2021273
C           0.1855252    -1.4776083    -0.1900915
O           0.2902138    -2.6651676    -0.4899869
C           1.2796455    -0.5119402    -0.1989623
C           2.6057686    -1.0970041    -0.6211890
H           2.5922440    -1.2588116    -1.7068747
H           2.7091403    -2.1018502    -0.1805207
N           6.3885561     0.5325042     0.5343509
H           6.8302286    -0.3652057     0.7711468
H           7.0925701     1.2578978     0.7107289
C           6.0041377     0.5164184    -0.9377483
H           6.9102202     0.3037958    -1.5098082
H           5.6419260     1.5200478    -1.1698330
C           4.9152743    -0.5277538    -1.1557831
H           5.3334263    -1.5411172    -0.9854078
H           4.6194099    -0.4793193    -2.2080799
N           3.7639334    -0.2388776    -0.3113552
C           4.1307464    -0.3143145     1.0989857
H           4.5046071    -1.3190870     1.3839667
H           3.2473806    -0.1185203     1.7132378
C           5.1799078     0.7366604     1.4365654
H           5.5282695     0.6659503     2.4695882
H           4.8157614     1.7460339     1.2342091
30
022_C10H16N3O+_0-10-11-23 (30,) energy =    -629.9441788
C           1.0114502     0.8369836    -0.0370339
H           1.7923240     1.5708490    -0.2240794
C          -0.2649416     1.2784728     0.4136017
H          -0.4726540     2.3285340     0.5769433
C          -1.2353960     0.3413335     0.6241083
H          -2.2388860     0.5804463     0.9580992
N          -0.9698509    -0.9787368     0.4125528
H          -1.6899872    -1.6771373     0.5651853
C           0.2557532    -1.5021943    -0.0318757
O           0.3966746    -2.7113474    -0.2011146
C           1.2830070    -0.4884581    -0.2543573
C           2.6009832    -1.0217537    -0.7635069
H           2.5822524    -1.0534025    -1.8608705
H           2.7078518    -2.0663501    -0.4315845
N           6.3681166     0.4740333     0.6047316
H           6.7760888    -0.4430925     0.8271054
H           7.0825352     1.1734670     0.8356224
C           6.0448785     0.5192864    -0.8811688
H           6.9679169     0.3014621    -1.4233985
H           5.7193233     1.5400358    -1.0918966
C           4.9388843    -0.4862803    -1.1796127
H           5.3226954    -1.5162644    -1.0287639
H           4.6872559    -0.3944862    -2.2407214
N           3.7613277    -0.1964507    -0.3722667
C           4.0684885    -0.3322580     1.0476683
H           4.4050377    -1.3559523     1.3109411
H           3.1654696    -0.1341474     1.6318231
C           5.1280011     0.6789396     1.4634143
H           5.4314918     0.5650197     2.5066818
H           4.7967105     1.7032593     1.2807775
30
022_C10H16N3O+_0-10-11-23 (45,) energy =    -629.9446426
C           0.9259674     0.8754571    -0.2540782
H           1.6295343     1.6283211    -0.6032919
C          -0.3326025     1.2911682     0.2621095
H          -0.6058650     2.3378476     0.3087882
C          -1.2044824     0.3287892     0.6861415
H          -2.1899185     0.5447372     1.0839055
N          -0.8555500    -0.9863534     0.6237568
H          -1.5018529    -1.7027966     0.9378819
C           0.3655459    -1.4867658     0.1368962
O           0.5850584    -2.6960532     0.1377108
C           1.2790466    -0.4478583    -0.3322404
C           2.5909348    -0.9314111    -0.9030548
H           2.5802470    -0.8371086    -1.9964571
H           2.6920438    -2.0028503    -0.6742088
N           6.3423223     0.3957302     0.6718895
H           6.7155293    -0.5430068     0.8630229
H           7.0672725     1.0613846     0.9620213
C           6.0749514     0.5218717    -0.8202088
H           7.0108622     0.3034869    -1.3397103
H           5.7854608     1.5606108    -0.9919153
C           4.9533947    -0.4358862    -1.2053958
H           5.3039400    -1.4826232    -1.0932377
H           4.7415870    -0.2859604    -2.2688117
N           3.7559106    -0.1523007    -0.4257105
C           4.0079769    -0.3658891     0.9953034
H           4.3067883    -1.4097734     1.2216265
H           3.0897791    -0.1689442     1.5558207
C           5.0774311     0.5951404     1.4954522
H           5.3403591     0.4242725     2.5419564
H           4.7793230     1.6354135     1.3496836
30
022_C10H16N3O+_0-10-11-23 (60,) energy =    -629.9470696
C           0.4872237    -0.0273472    -1.1284728
H           0.7529219    -0.5760977    -2.0293186
C          -0.6099574     0.8750677    -1.1645294
H          -1.1893164     1.0205326    -2.0675628
C          -0.9330489     1.5472151    -0.0195419
H          -1.7647294     2.2384448     0.0573674
N          -0.1871423     1.3753035     1.1096481
H          -0.3902599     1.9163577     1.9439549
C           0.9454587     0.5599144     1.2072988
O           1.6511946     0.5946500     2.2245929
C           1.1970563    -0.2534251     0.0256950
C           2.3844252    -1.1761882     0.1133269
H           2.0928384    -2.1853711    -0.2035360
H           2.6679165    -1.2376015     1.1719708
N           5.8232575    -0.1389120     0.8705243
H           6.5382172     0.1056977     0.1742671
H           6.2688674    -0.0345775     1.7884968
C           4.6592718     0.8411857     0.7394138
H           5.0815239     1.8465719     0.8160570
H           3.9799378     0.6638725     1.5789535
C           3.9654687     0.5888226    -0.6055133
H           4.6475456     0.8327293    -1.4322778
H           3.1161846     1.2713101    -0.6816949
N           3.5061147    -0.7887569    -0.7783220
C           4.6367800    -1.7048894    -0.6708673
H           5.3235563    -1.5192263    -1.5084638
H           4.2876778    -2.7378500    -0.7683524
C           5.4073572    -1.5890750     0.6576379
H           6.3180495    -2.1934346     0.6694232
H           4.7911853    -1.8542386     1.5187605
30
022_C10H16N3O+_0-10-11-23 (75,) energy =    -629.9499301
C           0.3801696    -0.1185528    -1.1200682
H           0.5547276    -0.7467868    -1.9906959
C          -0.7198018     0.7799265    -1.1279374
H          -1.3840202     0.8509482    -1.9799899
C          -0.9354625     1.5467393    -0.0176866
H          -1.7580567     2.2461041     0.0801760
N          -0.0886536     1.4614790     1.0479805
H          -0.2300398     2.0528769     1.8606060
C           1.0427620     0.6425190     1.1146528
O           1.8083371     0.7208979     2.0869236
C           1.2116333    -0.2355050    -0.0324027
C           2.3782035    -1.1863195     0.0214316
H           2.0819927    -2.1551928    -0.3972206
H           2.6191729    -1.3463789     1.0819106
N           5.8430781    -0.1600371     0.9232048
H           6.5677805     0.0963075     0.2412715
H           6.2789190    -0.0832746     1.8483796
C           4.6858020     0.8298993     0.8087846
H           5.1129396     1.8302165     0.9190425
H           3.9906559     0.6318981     1.6300376
C           4.0030131     0.6219943    -0.5489195
H           4.6921484     0.8955644    -1.3609973
H           3.1546573     1.3067998    -0.6103392
N           3.5499472    -0.7470098    -0.7790452
C           4.6724948    -1.6707710    -0.6778636
H           5.3791289    -1.4621488    -1.4938606
H           4.3221145    -2.6986151    -0.8163835
C           5.4165747    -1.5992032     0.6683819
H           6.3199604    -2.2145303     0.6835372
H           4.7787895    -1.8773182     1.5096838
30
022_C10H16N3O+_0-10-11-23 (90,) energy =    -629.9509400
C           0.2806227    -0.1960161    -1.1007793
H           0.3881529    -0.8903774    -1.9310762
C          -0.8406287     0.6744777    -1.0755972
H          -1.5802824     0.6650576    -1.8661511
C          -0.9778809     1.5181938    -0.0098261
H          -1.8065870     2.2068430     0.1098716
N          -0.0417711     1.5244800     0.9814873
H          -0.1421279     2.1495680     1.7747792
C           1.1031369     0.7230332     1.0172751
O           1.9100058     0.8432563     1.9514487
C           1.2251376    -0.1965925    -0.1018182
C           2.3765328    -1.1674141    -0.0656398
H           2.0836468    -2.0948376    -0.5696482
H           2.5621336    -1.4127028     0.9919955
N           5.8836601    -0.2080016     0.9806307
H           6.6175039     0.0429723     0.3062917
H           6.3168494    -0.1594471     1.9087992
C           4.7489933     0.8090413     0.8828319
H           5.1961405     1.7972065     1.0202651
H           4.0415754     0.6043850     1.6901075
C           4.0682396     0.6506725    -0.4827032
H           4.7657843     0.9423159    -1.2820473
H           3.2302861     1.3486230    -0.5255763
N           3.6033264    -0.7020798    -0.7613684
C           4.7020624    -1.6507461    -0.6653305
H           5.4313750    -1.4352210    -1.4601972
H           4.3347108    -2.6669210    -0.8403174
C           5.4207062    -1.6291116     0.6957572
H           6.3045312    -2.2721427     0.7176052
H           4.7565147    -1.9005498     1.5189205
30
022_C10H16N3O+_0-10-11-23 (105,) energy =    -629.9501639
C           0.4240450     0.1910715    -1.1591533
H           0.4490347    -0.1561281    -2.1899468
C          -0.5848361     1.1118210    -0.7718469
H          -1.3123734     1.4831631    -1.4825138
C          -0.6379064     1.4962847     0.5377624
H          -1.3856005     2.1704912     0.9396228
N           0.2878613     1.0258514     1.4225216
H           0.2523103     1.3099633     2.3964854
C           1.3340820     0.1555024     1.1106577
O           2.1660218    -0.1414542     1.9863469
C           1.3458771    -0.3061467    -0.2656988
C           2.3469844    -1.3685376    -0.6497914
H           1.9883107    -1.8502409    -1.5686500
H           2.3338594    -2.1311942     0.1365917
N           5.5613656     0.2331830     1.0535684
H           6.4456146     0.2412583     0.5298030
H           5.7638237     0.6384141     1.9730833
C           4.5372448     1.1010437     0.3320442
H           4.9973502     2.0818997     0.1823993
H           3.6954789     1.1688801     1.0198354
C           4.1475011     0.4248681    -0.9967860
H           5.0011160     0.4906284    -1.6904922
H           3.3361305     1.0048984    -1.4422163
N           3.7606864    -0.9630647    -0.8615593
C           4.7681777    -1.7508927    -0.1798121
H           5.6874647    -1.7747493    -0.7877986
H           4.4369784    -2.7880759    -0.0843036
C           5.0959413    -1.2094276     1.2174021
H           5.9050154    -1.7523145     1.7138257
H           4.2026394    -1.1668277     1.8445060
30
022_C10H16N3O+_0-10-11-23 (120,) energy =    -629.9510693
C           0.3651216     0.2064837    -1.1475735
H           0.3633201    -0.1078583    -2.1892794
C          -0.6659339     1.0711003    -0.6960226
H          -1.4371443     1.4275656    -1.3671269
C          -0.6767554     1.4234434     0.6230275
H          -1.4310207     2.0573785     1.0750162
N           0.3060156     0.9693610     1.4525084
H           0.3005327     1.2240485     2.4351311
C           1.3673859     0.1404857     1.0796501
O           2.2291754    -0.1550824     1.9257110
C           1.3484959    -0.2738359    -0.3116686
C           2.3543216    -1.2962614    -0.8009352
H           2.0693398    -1.5672904    -1.8275631
H           2.2440000    -2.2047519    -0.1985304
N           5.6189897     0.2781862     1.0584453
H           6.4985367     0.2170898     0.5296474
H           5.8459361     0.7340427     1.9479458
C           4.6281426     1.1387669     0.2839821
H           5.1179766     2.0977953     0.0932779
H           3.7761469     1.2614030     0.9516801
C           4.2393491     0.4026212    -1.0106221
H           5.1119514     0.3920615    -1.6869503
H           3.4614274     0.9860611    -1.5095486
N           3.7815375    -0.9434854    -0.7712343
C           4.7194648    -1.7514161    -0.0275141
H           5.6361763    -1.9059857    -0.6238084
H           4.3013743    -2.7437770     0.1579173
C           5.0986745    -1.1311923     1.3227534
H           5.8981073    -1.6738327     1.8348030
H           4.2178785    -1.0155289     1.9555513
30
022_C10H16N3O+_0-10-11-23 (135,) energy =    -629.9509657
C           0.2651900     0.1484088    -1.1681421
H           0.2362055    -0.1879400    -2.2027392
C          -0.8096365     0.9373520    -0.6836725
H          -1.6416143     1.2102741    -1.3204858
C          -0.7756729     1.3314873     0.6227870
H          -1.5504081     1.9216891     1.0986773
N           0.2839897     0.9802890     1.4052952
H           0.3094665     1.2561849     2.3817957
C           1.3801678     0.2112044     1.0032132
O           2.2834500    -0.0142694     1.8278397
C           1.3327661    -0.2239635    -0.3813781
C           2.3707755    -1.1929094    -0.9254412
H           2.1692328    -1.3162032    -2.0001928
H           2.1994274    -2.1765893    -0.4721650
N           5.6986811     0.2299557     1.0721266
H           6.5677826     0.0979368     0.5385999
H           5.9637829     0.6868414     1.9504215
C           4.7646775     1.1414741     0.2849011
H           5.3151229     2.0642999     0.0818676
H           3.9160158     1.3229382     0.9441679
C           4.3340913     0.4093426    -0.9962925
H           5.2066913     0.3299835    -1.6710916
H           3.5950308     1.0315944    -1.5082017
N           3.7823846    -0.8896861    -0.7143851
C           4.6510246    -1.7579810     0.0380117
H           5.5524941    -2.0108071    -0.5512164
H           4.1470430    -2.7026321     0.2561578
C           5.0855051    -1.1346497     1.3698692
H           5.8508224    -1.7202396     1.8865617
H           4.2190806    -0.9467571     2.0036583
30
022_C10H16N3O+_0-10-11-23 (150,) energy =    -629.9497596
C           0.1682809     0.0572966    -1.1287347
H           0.1048767    -0.3222398    -2.1471387
C          -0.9458017     0.7586635    -0.6031358
H          -1.8401622     0.9206555    -1.1914088
C          -0.8616250     1.2202006     0.6787004
H          -1.6533577     1.7611724     1.1841571
N           0.2768912     1.0039011     1.3948745
H           0.3434526     1.3292135     2.3540180
C           1.4118870     0.3155529     0.9537867
O           2.3703885     0.2007071     1.7399210
C           1.3225797    -0.1703629    -0.4113271
C           2.3962911    -1.0672069    -1.0271886
H           2.2601830    -1.0326761    -2.1187262
H           2.1840596    -2.1040858    -0.7381822
N           5.7652019     0.1615260     1.0871725
H           6.6296105    -0.0417372     0.5686050
H           6.0508855     0.6117824     1.9623986
C           4.9122618     1.1277477     0.2731371
H           5.5333580     2.0031068     0.0643896
H           4.0659062     1.3784975     0.9127848
C           4.4476386     0.4071433    -1.0001835
H           5.3216356     0.2471091    -1.6605111
H           3.7658481     1.0737050    -1.5356749
N           3.7905549    -0.8362717    -0.6959930
C           4.5763343    -1.7619504     0.0756710
H           5.4587613    -2.1063925    -0.4976108
H           3.9886251    -2.6525676     0.3115858
C           5.0518733    -1.1503046     1.3988155
H           5.7711517    -1.7836760     1.9251247
H           4.2002171    -0.8909144     2.0265356
30
022_C10H16N3O+_0-10-11-23 (165,) energy =    -629.9482914
C           0.0872597    -0.0485244    -1.0535308
H          -0.0061593    -0.4856397    -2.0467707
C          -1.0559140     0.5617526    -0.4815659
H          -2.0004688     0.5982134    -1.0094787
C          -0.9304667     1.1046194     0.7647204
H          -1.7351027     1.5941384     1.3012210
N           0.2718848     1.0421963     1.4002077
H           0.3758805     1.4344772     2.3304945
C           1.4413799     0.4511804     0.9096196
O           2.4537316     0.4821712     1.6362140
C           1.3086525    -0.1168312    -0.4182079
C           2.4237980    -0.9019852    -1.1266582
H           2.3499795    -0.6720888    -2.1994320
H           2.1836121    -1.9699289    -1.0455654
N           5.7973759     0.0978535     1.1191475
H           6.6591202    -0.1899221     0.6375934
H           6.0888243     0.5402470     1.9964400
C           5.0628452     1.1185771     0.2564908
H           5.7697989     1.9265853     0.0495948
H           4.2201682     1.4600253     0.8577982
C           4.5751539     0.4136764    -1.0155179
H           5.4508595     0.1627653    -1.6454900
H           3.9712105     1.1260330    -1.5843914
N           3.8020148    -0.7612029    -0.7099208
C           4.4807657    -1.7368064     0.1008188
H           5.3500711    -2.1637227    -0.4369649
H           3.8121266    -2.5704052     0.3303143
C           4.9633882    -1.1414766     1.4284257
H           5.6072796    -1.8237672     1.9899588
H           4.1178630    -0.7950937     2.0216935
30
022_C10H16N3O+_0-10-11-23 (180,) energy =    -629.9475286
C           0.0261304    -0.1700814    -0.9632222
H          -0.0806421    -0.6822086    -1.9188097
C          -1.1380498     0.3619995    -0.3579033
H          -2.1109224     0.2672937    -0.8234886
C          -0.9952919     1.0023351     0.8395398
H          -1.8123988     1.4483138     1.3947674
N           0.2427424     1.1028620     1.3956952
H           0.3633772     1.5745403     2.2862446
C           1.4370314     0.6042458     0.8638182
O           2.4812901     0.7895654     1.5204749
C           1.2840597    -0.0733319    -0.4071605
C           2.4389932    -0.7111521    -1.2052535
H           2.4310958    -0.2570783    -2.2052543
H           2.1768533    -1.7649176    -1.3695777
N           5.7590774     0.0663933     1.1976828
H           6.6194071    -0.3093211     0.7783453
H           6.0353266     0.5097084     2.0793866
C           5.1706452     1.1198395     0.2642175
H           5.9604367     1.8520027     0.0755287
H           4.3285748     1.5558110     0.8012150
C           4.6952296     0.4172558    -1.0126506
H           5.5803461     0.0638157    -1.5768076
H           4.1967075     1.1598418    -1.6413741
N           3.8021565    -0.6753448    -0.7270009
C           4.3419624    -1.6793950     0.1525110
H           5.1965178    -2.1999352    -0.3221421
H           3.5874154    -2.4414110     0.3652708
C           4.8037594    -1.0867530     1.4890550
H           5.3540211    -1.8056416     2.1021401
H           3.9640278    -0.6487166     2.0278736
