30
022_C10H16N3O+_10-11-23-24 (-165,) energy =    -629.9576328
C           0.1214319     0.4335670    -1.0682088
H           0.0238102     1.2099200    -1.8237203
C          -0.9465870    -0.4814031    -0.8851407
H          -1.8459184    -0.4252017    -1.4852897
C          -0.8197811    -1.4317921     0.0870509
H          -1.5819890    -2.1660542     0.3205073
N           0.3234473    -1.4935649     0.8288891
H           0.4204439    -2.1966497     1.5549830
C           1.4193904    -0.6452912     0.7041374
O           2.4075973    -0.8495436     1.4447341
C           1.2683938     0.3866342    -0.3101174
C           2.3463618     1.4413995    -0.4157324
H           2.3224597     2.0746263     0.4816848
H           2.1178677     2.0955978    -1.2748178
N           5.1266981    -0.5534157     0.8476724
H           4.1310603    -0.5006317     1.2027453
H           5.6787345    -1.1469750     1.4728356
C           5.0098990    -1.1679470    -0.5225950
H           4.6908634    -2.2037376    -0.3947113
H           6.0018330    -1.1561869    -0.9800839
C           3.9625850    -0.3067718    -1.2998849
H           3.0514383    -0.8838550    -1.4615508
H           4.3697292    -0.0434402    -2.2904322
N           3.6720110     0.8487582    -0.4775625
C           4.8597921     1.6390279    -0.2609420
H           4.6027716     2.6176494     0.1513982
H           5.4343506     1.8084703    -1.1850683
C           5.7108138     0.8405454     0.7813995
H           5.6352286     1.2601235     1.7869698
H           6.7660137     0.7500736     0.5110407
30
022_C10H16N3O+_10-11-23-24 (-150,) energy =    -629.9612495
C           0.1213095     0.3414735    -1.0088857
H           0.0162059     1.0641963    -1.8149984
C          -0.9507530    -0.5472497    -0.7474900
H          -1.8595618    -0.5231583    -1.3354191
C          -0.8137276    -1.4311202     0.2844862
H          -1.5749142    -2.1426952     0.5824341
N           0.3437816    -1.4499230     1.0044848
H           0.4516748    -2.1018569     1.7755440
C           1.4414057    -0.6202616     0.8042270
O           2.4349077    -0.7863885     1.5514282
C           1.2837778     0.3425526    -0.2689713
C           2.3489814     1.3990062    -0.4925143
H           2.3143207     2.1163237     0.3379033
H           2.0901628     1.9636436    -1.4047594
N           5.0642574    -0.6269882     0.8839199
H           4.0418581    -0.6256880     1.1886935
H           5.5927890    -1.2496732     1.5006801
C           5.0893172    -1.1272038    -0.5357487
H           4.8384619    -2.1896776    -0.5230486
H           6.1102096    -1.0139144    -0.9087149
C           4.0530234    -0.2767073    -1.3346822
H           3.1583089    -0.8707853    -1.5352615
H           4.4908966     0.0025580    -2.3082489
N           3.6941658     0.8573838    -0.5163873
C           4.8345991     1.6291698    -0.0865002
H           4.5108875     2.5751290     0.3528526
H           5.5125894     1.8732161    -0.9198473
C           5.5862327     0.7844689     0.9891787
H           5.3706741     1.1209435     2.0057291
H           6.6693367     0.7610568     0.8426048
30
022_C10H16N3O+_10-11-23-24 (-135,) energy =    -629.9619592
C           0.1355826     0.3259533    -1.0034873
H           0.0333312     0.9950032    -1.8551940
C          -0.9544527    -0.5130442    -0.6673844
H          -1.8719824    -0.5045254    -1.2421434
C          -0.8219218    -1.3294028     0.4194353
H          -1.5948679    -1.9987358     0.7785214
N           0.3482320    -1.3282455     1.1180576
H           0.4590189    -1.9352004     1.9247068
C           1.4631681    -0.5472145     0.8406238
O           2.4672459    -0.6978039     1.5806182
C           1.3124694     0.3505162    -0.2838873
C           2.3830878     1.3801944    -0.6174095
H           2.3304545     2.1858890     0.1255161
H           2.1171871     1.8398607    -1.5839792
N           5.0333480    -0.7106113     0.8443438
H           3.9949880    -0.7532475     1.1021498
H           5.5448926    -1.3646654     1.4423269
C           5.1874145    -1.0745648    -0.6065294
H           5.0122183    -2.1474068    -0.7103047
H           6.2220989    -0.8644990    -0.8895845
C           4.1623653    -0.2250192    -1.4131596
H           3.2850149    -0.8324491    -1.6547215
H           4.6264582     0.0770730    -2.3679650
N           3.7449407     0.8875305    -0.5939938
C           4.8240800     1.6091299     0.0349763
H           4.4471078     2.5230868     0.4982633
H           5.5905548     1.9147044    -0.6951961
C           5.4701353     0.7042832     1.1251673
H           5.1090704     0.9418689     2.1280780
H           6.5627269     0.7394196     1.1165628
30
022_C10H16N3O+_10-11-23-24 (-120,) energy =    -629.9615088
C           0.2302666     0.0898202    -1.0320033
H           0.1392941     0.6623688    -1.9527212
C          -0.8176397    -0.7950439    -0.6772471
H          -1.6908457    -0.9171532    -1.3057620
C          -0.7083476    -1.4794799     0.4996364
H          -1.4577335    -2.1639216     0.8795190
N           0.4058624    -1.3162871     1.2686991
H           0.4932902    -1.8150684     2.1490706
C           1.4776499    -0.4831017     0.9773028
O           2.4379789    -0.4651296     1.7889294
C           1.3476335     0.2760348    -0.2455160
C           2.3740520     1.3436498    -0.6006426
H           2.2374261     2.1936196     0.0786331
H           2.1335999     1.7237774    -1.6054010
N           4.9636733    -0.7386017     0.9644154
H           3.9697214    -0.6118001     1.3411390
H           5.4481198    -1.4246952     1.5488895
C           4.8371365    -1.2511514    -0.4493608
H           4.1193101    -2.0740728    -0.4166158
H           5.8094419    -1.6407815    -0.7628805
C           4.3469087    -0.0672010    -1.3366039
H           3.6053308    -0.4335765    -2.0502751
H           5.1912255     0.3248458    -1.9250422
N           3.7657294     0.9529726    -0.5013382
C           4.6832968     1.6326458     0.3864411
H           4.1072663     2.1161956     1.1797714
H           5.2860188     2.4112897    -0.1112043
C           5.6510749     0.5962714     1.0150532
H           5.8807678     0.8273981     2.0570956
H           6.5903352     0.5039251     0.4633998
30
022_C10H16N3O+_10-11-23-24 (-105,) energy =    -629.9609884
C           0.2368232     0.0664642    -1.0452843
H           0.1485444     0.5848038    -1.9978971
C          -0.8147491    -0.7929700    -0.6436244
H          -1.6864580    -0.9484225    -1.2669103
C          -0.7118755    -1.4083104     0.5715409
H          -1.4650107    -2.0662999     0.9887910
N           0.4012931    -1.2033677     1.3317158
H           0.4872990    -1.6523427     2.2387379
C           1.4754805    -0.3934989     0.9925826
O           2.4396989    -0.3353894     1.8008615
C           1.3537677     0.2969361    -0.2680389
C           2.3704152     1.3564345    -0.6921702
H           2.1940377     2.2564192    -0.0904399
H           2.1301739     1.6440668    -1.7254653
N           4.9107707    -0.7541902     0.9263863
H           3.9266663    -0.6343081     1.3294125
H           5.4047355    -1.4598633     1.4782678
C           4.7654948    -1.2135740    -0.5064412
H           3.9757682    -1.9685272    -0.5099940
H           5.7042838    -1.6817170    -0.8154256
C           4.4093243     0.0268285    -1.3746767
H           3.7392259    -0.2808928    -2.1812898
H           5.3241635     0.4053382    -1.8541070
N           3.7846630     1.0565325    -0.5829376
C           4.5940671     1.6343075     0.4760690
H           3.9357615     1.9580688     1.2864496
H           5.1757461     2.5102269     0.1448647
C           5.5841653     0.5852372     1.0256083
H           5.8321222     0.7719052     2.0724108
H           6.5125795     0.5340043     0.4508595
30
022_C10H16N3O+_10-11-23-24 (-90,) energy =    -629.9596104
C           0.2765332     0.0369154    -1.0026748
H           0.1840009     0.5272273    -1.9697031
C          -0.7949847    -0.7729222    -0.5566025
H          -1.6831410    -0.9164986    -1.1591679
C          -0.6871920    -1.3572914     0.6733655
H          -1.4511924    -1.9781113     1.1262222
N           0.4487299    -1.1665120     1.4011834
H           0.5450185    -1.5973792     2.3159663
C           1.5424381    -0.4050392     1.0163616
O           2.5256363    -0.3693835     1.8052235
C           1.4187018     0.2580437    -0.2569027
C           2.4329481     1.2938342    -0.7666494
H           2.1982505     2.2469436    -0.2743301
H           2.2118401     1.4569907    -1.8289648
N           4.9600888    -0.8067658     0.8926144
H           3.9773256    -0.7307008     1.3088813
H           5.4795043    -1.5218831     1.4073480
C           4.8219374    -1.1970346    -0.5633453
H           3.9963589    -1.9107127    -0.6146234
H           5.7421047    -1.6984519    -0.8761763
C           4.5505468     0.0882111    -1.3898620
H           3.9607219    -0.1740777    -2.2720660
H           5.5070934     0.4806638    -1.7619417
N           3.8644623     1.1044405    -0.6263696
C           4.5616655     1.5890680     0.5613966
H           3.8339119     1.7811117     1.3530968
H           5.1057476     2.5269509     0.3680517
C           5.5794991     0.5512041     1.0682661
H           5.8000955     0.6934539     2.1281899
H           6.5193518     0.5672192     0.5107535
30
022_C10H16N3O+_10-11-23-24 (-75,) energy =    -629.9609150
C           0.2489764     0.6269192    -0.5101266
H           0.1311293     1.4750261    -1.1817679
C          -0.9023593     0.1124477     0.1319561
H          -1.8813739     0.5455540    -0.0298497
C          -0.7429399    -0.9610971     0.9610164
H          -1.5510194    -1.4465992     1.4955613
N           0.5033727    -1.4747133     1.1537037
H           0.6349994    -2.2680519     1.7737911
C           1.6809567    -1.0213772     0.5675117
O           2.7366220    -1.6194703     0.8938768
C           1.5103096     0.0924669    -0.3426094
C           2.6630438     0.6400128    -1.1817246
H           2.4027187     1.6608791    -1.5045068
H           2.7298085     0.0447828    -2.1010358
N           5.2284120    -0.6867311     1.1578994
H           4.2063535    -1.0057137     1.1121329
H           5.7156982    -1.2356962     1.8709037
C           5.7973902    -0.9765462    -0.2062982
H           5.5530112    -2.0182128    -0.4244161
H           6.8834461    -0.8612185    -0.1640550
C           5.1163313     0.0084727    -1.2019417
H           4.8131119    -0.5337840    -2.0995549
H           5.8377267     0.7809992    -1.5165978
N           3.9601779     0.5751385    -0.5454703
C           4.2988088     1.5046708     0.5074186
H           3.3831771     1.7893593     1.0341622
H           4.7755636     2.4309226     0.1423841
C           5.2682784     0.7803268     1.4893865
H           4.9711886     0.8990019     2.5333712
H           6.3037502     1.1139053     1.3838494
30
022_C10H16N3O+_10-11-23-24 (-60,) energy =    -629.9619465
C           0.2881714     0.6628714    -0.4925371
H           0.1826688     1.5025611    -1.1761876
C          -0.8566477     0.2145246     0.2098086
H          -1.8200046     0.6923443     0.0837961
C          -0.7145497    -0.8551328     1.0469488
H          -1.5229392    -1.2929283     1.6207804
N           0.5118743    -1.4301421     1.1954248
H           0.6290444    -2.2228337     1.8192912
C           1.6809856    -1.0399781     0.5526323
O           2.7266899    -1.6765943     0.8327225
C           1.5262693     0.0675555    -0.3669888
C           2.6760776     0.5144375    -1.2589254
H           2.3876545     1.4663648    -1.7354882
H           2.7844799    -0.2122591    -2.0739099
N           5.2077579    -0.7073502     1.1237427
H           4.2036186    -1.0684264     1.0361321
H           5.6942629    -1.2604196     1.8341033
C           5.8470782    -0.9099047    -0.2253237
H           5.6557529    -1.9484996    -0.5036089
H           6.9248157    -0.7567352    -0.1251980
C           5.1761083     0.0980024    -1.2059787
H           4.9493800    -0.4066713    -2.1472280
H           5.8784097     0.9144315    -1.4401807
N           3.9620837     0.5859758    -0.5974824
C           4.1761529     1.4550178     0.5349568
H           3.2172669     1.6273882     1.0324182
H           4.5904901     2.4416753     0.2645869
C           5.1592113     0.7449897     1.5128878
H           4.8315075     0.8078212     2.5525930
H           6.1771743     1.1373630     1.4462609
30
022_C10H16N3O+_10-11-23-24 (-45,) energy =    -629.9617345
C           0.3029035     0.6711333    -0.4828989
H           0.2010079     1.4933551    -1.1876267
C          -0.8345067     0.2657036     0.2574481
H          -1.7899243     0.7615630     0.1409314
C          -0.6988458    -0.7877519     1.1161834
H          -1.5050766    -1.1926640     1.7165487
N           0.5167656    -1.3895246     1.2527857
H           0.6272639    -2.1739950     1.8882518
C           1.6761713    -1.0388502     0.5740800
O           2.7190202    -1.6889503     0.8339311
C           1.5289794     0.0502517    -0.3655884
C           2.6747155     0.4275009    -1.2884321
H           2.3455641     1.2918710    -1.8889699
H           2.8318465    -0.3956025    -1.9971630
N           5.1838346    -0.6942416     1.0991816
H           4.1893466    -1.0785433     1.0118298
H           5.6825849    -1.2485380     1.7999521
C           5.8301076    -0.8589579    -0.2529331
H           5.6155509    -1.8812142    -0.5722562
H           6.9106793    -0.7372558    -0.1385545
C           5.1967693     0.2032143    -1.1989783
H           5.0285599    -0.2397240    -2.1827811
H           5.9017285     1.0362181    -1.3444232
N           3.9511664     0.6640148    -0.6375310
C           4.0849658     1.4505904     0.5649907
H           3.1079413     1.5232754     1.0510166
H           4.4355698     2.4806282     0.3814650
C           5.0976506     0.7482759     1.5157839
H           4.7809541     0.7844313     2.5602524
H           6.1031736     1.1708557     1.4443838
30
022_C10H16N3O+_10-11-23-24 (-30,) energy =    -629.9610605
C           0.3355911     0.6795259    -0.5198606
H           0.2386061     1.4831816    -1.2460763
C          -0.8006613     0.3067743     0.2396934
H          -1.7506117     0.8119760     0.1185845
C          -0.6735854    -0.7291307     1.1209972
H          -1.4815219    -1.1090193     1.7352322
N           0.5341443    -1.3463542     1.2631313
H           0.6368430    -2.1201561     1.9128884
C           1.6907855    -1.0231444     0.5692796
O           2.7315948    -1.6774730     0.8282151
C           1.5539027     0.0453920    -0.3928177
C           2.7026152     0.3704484    -1.3267255
H           2.3411679     1.1316783    -2.0361613
H           2.9185630    -0.5270026    -1.9212968
N           5.1806825    -0.6578401     1.0426843
H           4.1935117    -1.0620523     0.9694064
H           5.6978018    -1.2139471     1.7284592
C           5.8139714    -0.7921751    -0.3209609
H           5.5576916    -1.7922820    -0.6777538
H           6.8992988    -0.7181787    -0.2096520
C           5.2237973     0.3299036    -1.2215479
H           5.1079557    -0.0440602    -2.2412099
H           5.9338393     1.1675090    -1.2763860
N           3.9562963     0.7828027    -0.7025472
C           4.0382960     1.4805885     0.5602505
H           3.0525750     1.4823672     1.0328415
H           4.3452850     2.5337994     0.4505975
C           5.0686000     0.7739709     1.4875657
H           4.7579927     0.7830384     2.5345880
H           6.0651386     1.2177812     1.4192363
30
022_C10H16N3O+_10-11-23-24 (-15,) energy =    -629.9605828
C           0.3353578     0.6489991    -0.5049378
H           0.2435146     1.4237275    -1.2623700
C          -0.8017678     0.3149639     0.2712712
H          -1.7479508     0.8228488     0.1331195
C          -0.6823316    -0.6888523     1.1902752
H          -1.4925813    -1.0379910     1.8195181
N           0.5194523    -1.3128214     1.3532321
H           0.6146588    -2.0649439     2.0291048
C           1.6757733    -1.0239924     0.6459168
O           2.7136700    -1.6768243     0.9208474
C           1.5484289     0.0101232    -0.3529229
C           2.7034008     0.2796614    -1.2919875
H           2.3261673     0.9211579    -2.1016960
H           2.9777578    -0.6776133    -1.7571150
N           5.1641048    -0.6564968     1.0060176
H           4.1838730    -1.0809218     0.9525063
H           5.7060639    -1.2196129     1.6664385
C           5.7795774    -0.7355894    -0.3715253
H           5.5073601    -1.7154354    -0.7704897
H           6.8671220    -0.6827553    -0.2699887
C           5.2036405     0.4350421    -1.2158321
H           5.1225367     0.1261016    -2.2608195
H           5.9053457     1.2794293    -1.1961117
N           3.9198823     0.8656763    -0.7129194
C           3.9824858     1.4807670     0.5970613
H           2.9943455     1.4429523     1.0611600
H           4.2692745     2.5422880     0.5405205
C           5.0227065     0.7563756     1.5006386
H           4.7090079     0.7191473     2.5461774
H           6.0106708     1.2214413     1.4528737
30
022_C10H16N3O+_10-11-23-24 (0,) energy =    -629.9606281
C           0.3491171     0.6102265    -0.5238148
H           0.2730760     1.3493278    -1.3175881
C          -0.8007970     0.3169421     0.2501757
H          -1.7424557     0.8216762     0.0746496
C          -0.7001247    -0.6435615     1.2167419
H          -1.5218474    -0.9581001     1.8493308
N           0.4948682    -1.2668971     1.4268412
H           0.5753505    -1.9872003     2.1383430
C           1.6620655    -1.0146607     0.7249226
O           2.6946287    -1.6560969     1.0431138
C           1.5558985    -0.0259331    -0.3208849
C           2.7357464     0.1899089    -1.2377737
H           2.3749462     0.7059969    -2.1371829
H           3.0717016    -0.8060966    -1.5646792
N           5.1618049    -0.6767520     0.9605451
H           4.1888145    -1.1179450     0.9145208
H           5.7235247    -1.2583658     1.5877377
C           5.7743524    -0.6647463    -0.4215233
H           5.5173023    -1.6228671    -0.8789409
H           6.8611741    -0.6059765    -0.3167704
C           5.1921168     0.5491005    -1.1982858
H           5.1357997     0.3070858    -2.2629702
H           5.8748723     1.4029986    -1.1082174
N           3.8912203     0.9347848    -0.6961872
C           3.9454865     1.4616565     0.6565213
H           2.9543683     1.4004252     1.1093346
H           4.2283410     2.5240007     0.6497743
C           4.9848947     0.7024518     1.5342292
H           4.6551376     0.5938289     2.5696830
H           5.9642739     1.1876397     1.5312353
30
022_C10H16N3O+_10-11-23-24 (15,) energy =    -629.9609283
C           0.3559076     0.5598406    -0.5693751
H           0.3023236     1.2560184    -1.4027377
C          -0.8096418     0.3179212     0.1996066
H          -1.7436127     0.8198940    -0.0194989
C          -0.7344990    -0.5876486     1.2202513
H          -1.5703186    -0.8575132     1.8549875
N           0.4496136    -1.2111903     1.4867025
H           0.5097397    -1.8902456     2.2395262
C           1.6300872    -1.0069339     0.7928434
O           2.6553957    -1.6337461     1.1599691
C           1.5509760    -0.0742465    -0.3058458
C           2.7647109     0.0772293    -1.1858500
H           2.4443681     0.4676885    -2.1592418
H           3.1471487    -0.9396700    -1.3710244
N           5.1516431    -0.7491743     0.8809773
H           4.1807284    -1.1921906     0.8482631
H           5.7302124    -1.3563946     1.4675074
C           5.7534352    -0.6442230    -0.5031599
H           5.5103432    -1.5765509    -1.0173411
H           6.8396155    -0.5788707    -0.3977426
C           5.1618113     0.6095246    -1.2085860
H           5.1107802     0.4271761    -2.2859143
H           5.8325938     1.4643632    -1.0643081
N           3.8518799     0.9580230    -0.6917950
C           3.9276403     1.3980367     0.6967008
H           2.9382385     1.3339681     1.1508272
H           4.2247485     2.4543968     0.7290697
C           4.9621755     0.5915754     1.5366727
H           4.6207820     0.4138687     2.5583929
H           5.9391170     1.0802015     1.5743321
30
022_C10H16N3O+_10-11-23-24 (30,) energy =    -629.9601560
C           0.3682367     0.5234342    -0.6336984
H           0.3362764     1.1745673    -1.5037195
C          -0.8137050     0.3257515     0.1242964
H          -1.7413641     0.8174334    -0.1403638
C          -0.7637345    -0.5208716     1.1960607
H          -1.6146540    -0.7499269     1.8267544
N           0.4103337    -1.1356794     1.5239261
H           0.4498091    -1.7675927     2.3179528
C           1.6054181    -0.9706509     0.8458512
O           2.6285990    -1.5687801     1.2634509
C           1.5508009    -0.0996723    -0.3050408
C           2.8078756    -0.0069244    -1.1245666
H           2.5443512     0.2614163    -2.1542348
H           3.2309338    -1.0227546    -1.1723021
N           5.1636091    -0.7848725     0.8019819
H           4.1962792    -1.2274483     0.7879107
H           5.7630390    -1.4134667     1.3436849
C           5.7431891    -0.5907321    -0.5845760
H           5.5170697    -1.4984164    -1.1473982
H           6.8284598    -0.5099438    -0.4827707
C           5.1283729     0.6907963    -1.2227539
H           5.0702366     0.5552492    -2.3069441
H           5.7861927     1.5479058    -1.0423325
N           3.8111463     0.9980141    -0.6811346
C           3.9315172     1.3577092     0.7353914
H           2.9514438     1.2851436     1.2071741
H           4.2349353     2.4097856     0.7968635
C           4.9750248     0.5192160     1.5260353
H           4.6379584     0.2880134     2.5379891
H           5.9508292     1.0084350     1.5815036
30
022_C10H16N3O+_10-11-23-24 (45,) energy =    -629.9559383
C           0.3685693     0.4804226    -0.6939084
H           0.3578285     1.0870613    -1.5960077
C          -0.8322179     0.3112267     0.0434673
H          -1.7560842     0.7804952    -0.2706472
C          -0.8070624    -0.4753129     1.1611146
H          -1.6750798    -0.6734185     1.7788513
N           0.3594178    -1.0655932     1.5581787
H           0.3773530    -1.6506600     2.3879714
C           1.5710185    -0.9262726     0.9046149
O           2.5955114    -1.4831584     1.3725676
C           1.5393857    -0.1170439    -0.2944491
C           2.8462212    -0.0695419    -1.0283059
H           2.6525681     0.0956771    -2.0950353
H           3.2952385    -1.0687488    -0.9555811
N           5.2037815    -0.7994050     0.7484242
H           4.2428437    -1.2406614     0.7684261
H           5.8337688    -1.4431563     1.2353047
C           5.7267710    -0.5282876    -0.6526685
H           5.5002164    -1.4127591    -1.2503235
H           6.8129730    -0.4333415    -0.5781431
C           5.0768898     0.7744005    -1.2178504
H           4.9942704     0.6801401    -2.3048626
H           5.7258342     1.6329318    -1.0166058
N           3.7595563     1.0392060    -0.6313663
C           3.9583696     1.3229950     0.8038433
H           3.0025042     1.2186944     1.3171055
H           4.2478259     2.3766064     0.8900967
C           5.0410841     0.4777794     1.5206649
H           4.7482411     0.2174450     2.5389875
H           6.0160392     0.9712879     1.5449373
30
022_C10H16N3O+_10-11-23-24 (60,) energy =    -629.9483400
C           0.5327534     0.8658225    -0.7879405
H           0.9162249     1.5494482    -1.5426966
C          -0.7400192     1.1275874    -0.2127714
H          -1.3230320     1.9927070    -0.5022585
C          -1.2281439     0.2387620     0.7026516
H          -2.1961849     0.3393681     1.1807031
N          -0.4899934    -0.8493566     1.0604095
H          -0.8507962    -1.5123126     1.7387493
C           0.7869009    -1.1624178     0.5693270
O           1.3924610    -2.1480481     0.9980611
C           1.2821176    -0.2298100    -0.4347618
C           2.5881990    -0.5737441    -1.1034787
H           2.5918174    -0.1616075    -2.1179524
H           2.6613189    -1.6701661    -1.1811220
N           6.3810104     0.0558863     0.7988169
H           6.6344148    -0.9391457     0.8505501
H           7.1627157     0.5784545     1.2089620
C           6.1933078     0.4393646    -0.6593846
H           7.1199494     0.1971611    -1.1850573
H           6.0271152     1.5184852    -0.6725756
C           4.9905712    -0.3130117    -1.2166591
H           5.2220803    -1.3975524    -1.2639627
H           4.8439461     0.0229803    -2.2484430
N           3.7961457    -0.0220756    -0.4344825
C           3.9650347    -0.4789446     0.9429043
H           4.1309671    -1.5700057     1.0182230
H           3.0595407    -0.2711640     1.5142481
C           5.1090093     0.2759864     1.6053898
H           5.3048935    -0.0716913     2.6223492
H           4.9320363     1.3536185     1.6049644
30
022_C10H16N3O+_10-11-23-24 (75,) energy =    -629.9484882
C           0.5460568     0.7558453    -0.9221833
H           0.9346455     1.3078830    -1.7756622
C          -0.7277917     1.1145218    -0.4049685
H          -1.3028779     1.9254903    -0.8336443
C          -1.2263758     0.3865765     0.6371506
H          -2.1958001     0.5662055     1.0882659
N          -0.4946460    -0.6342793     1.1659451
H          -0.8607533    -1.1795253     1.9396005
C           0.7811196    -1.0273583     0.7394162
O           1.3724474    -1.9400866     1.3270237
C           1.2904022    -0.2718756    -0.3955037
C           2.5998714    -0.7078204    -1.0115303
H           2.6221710    -0.3678236    -2.0513769
H           2.6441735    -1.8085595    -1.0201605
N           6.4297766     0.1326473     0.7536607
H           6.8265883    -0.8112317     0.6625344
H           7.1528915     0.7120171     1.1938510
C           6.1015950     0.6615948    -0.6329664
H           7.0189484     0.6188231    -1.2250317
H           5.7912952     1.6996704    -0.4979119
C           4.9751525    -0.1733368    -1.2350084
H           5.3443897    -1.2005785    -1.4373168
H           4.7258143     0.2709552    -2.2038223
N           3.8106685    -0.1438804    -0.3619297
C           4.1294378    -0.7626189     0.9226989
H           4.4785527    -1.8094579     0.8086091
H           3.2372484    -0.8215905     1.5474267
C           5.1930279     0.0524752     1.6410161
H           5.5025384    -0.3997072     2.5861552
H           4.8680337     1.0818889     1.8054288
30
022_C10H16N3O+_10-11-23-24 (90,) energy =    -629.9489753
C           0.4858091     0.5780277    -1.1173712
H           0.8414256     0.9395061    -2.0802479
C          -0.7802137     1.0266109    -0.6530184
H          -1.3789245     1.7209633    -1.2288099
C          -1.2362986     0.5387027     0.5371093
H          -2.1933534     0.8036121     0.9720891
N          -0.4723691    -0.3380933     1.2483215
H          -0.8090341    -0.7113092     2.1299054
C           0.7909697    -0.8096267     0.8734364
O           1.3924359    -1.5920962     1.6206370
C           1.2632552    -0.3035901    -0.4061738
C           2.5721674    -0.8279820    -0.9567073
H           2.6230164    -0.5680741    -2.0181562
H           2.5816515    -1.9270663    -0.8940589
N           6.4087576     0.1428123     0.7394726
H           6.9079793    -0.7154608     0.4736561
H           7.0834152     0.7287946     1.2432228
C           5.9405634     0.8473378    -0.5235150
H           6.8210443     1.0183143    -1.1476913
H           5.5180160     1.8012442    -0.2016560
C           4.8853759    -0.0105820    -1.2178942
H           5.3625494    -0.9340799    -1.6087219
H           4.5299406     0.5563413    -2.0839507
N           3.7852243    -0.2711845    -0.3051717
C           4.2411542    -1.0462014     0.8450164
H           4.7031069    -2.0101726     0.5431359
H           3.3797996    -1.2906032     1.4750021
C           5.2447024    -0.2390649     1.6497152
H           5.6631329    -0.8005346     2.4883322
H           4.8135361     0.6994465     2.0039489
30
022_C10H16N3O+_10-11-23-24 (105,) energy =    -629.9496801
C           0.4339377     0.3433299    -1.2666041
H           0.6983675     0.4573120    -2.3162504
C          -0.7913159     0.9023639    -0.8099776
H          -1.4512063     1.4384669    -1.4802873
C          -1.1234364     0.7346938     0.5027572
H          -2.0367420     1.1134867     0.9473245
N          -0.2838770     0.0548934     1.3359160
H          -0.5329628    -0.0841780     2.3096973
C           0.9391797    -0.5177827     0.9692777
O           1.6150487    -1.1091850     1.8207912
C           1.2818657    -0.3428827    -0.4336387
C           2.5598869    -0.9808223    -0.9283781
H           2.6407112    -0.8278879    -2.0100903
H           2.5137686    -2.0674511    -0.7710122
N           6.3369820     0.1702833     0.7804849
H           6.9441987    -0.5407847     0.3534476
H           6.9413999     0.7524193     1.3703673
C           5.7179623     1.0114282    -0.3249518
H           6.5379863     1.4197469    -0.9209558
H           5.1763620     1.8180184     0.1729059
C           4.7670304     0.1408964    -1.1445104
H           5.3561375    -0.6061587    -1.7179793
H           4.2811808     0.7945334    -1.8754971
N           3.7763747    -0.4506917    -0.2699746
C           4.3731184    -1.3379861     0.7157882
H           4.9429650    -2.1723115     0.2554867
H           3.5705178    -1.7531536     1.3300925
C           5.2867913    -0.5397360     1.6306668
H           5.8242084    -1.1645876     2.3479125
H           4.7284876     0.2399077     2.1522071
30
022_C10H16N3O+_10-11-23-24 (120,) energy =    -629.9496082
C           0.4919689     0.2168626    -1.3320222
H           0.7179211     0.1928092    -2.3966160
C          -0.6815010     0.8935814    -0.8950253
H          -1.3419810     1.3873230    -1.5966681
C          -0.9658057     0.8946760     0.4397576
H          -1.8394076     1.3726917     0.8683489
N          -0.1307416     0.2676022     1.3192193
H          -0.3508749     0.2528909     2.3095990
C           1.0424865    -0.4149268     0.9760208
O           1.7281139    -0.9526578     1.8527829
C           1.3312227    -0.4157349    -0.4521656
C           2.5670219    -1.1755147    -0.8614383
H           2.6664835    -1.1825931    -1.9551830
H           2.4739404    -2.2211906    -0.5473242
N           6.2605522     0.2527873     0.7956294
H           6.9397092    -0.3117720     0.2692609
H           6.8066484     0.8458555     1.4297219
C           5.4803321     1.1168286    -0.1840508
H           6.2089656     1.6982410    -0.7546403
H           4.8599617     1.7795832     0.4220907
C           4.6160457     0.2160594    -1.0650817
H           5.2677866    -0.3604815    -1.7558385
H           3.9930558     0.8696108    -1.6838992
N           3.7781251    -0.6136432    -0.2310556
C           4.5308572    -1.5110935     0.6207084
H           5.1846842    -2.2119222     0.0608189
H           3.8265487    -2.0924724     1.2194804
C           5.3642612    -0.6894315     1.5933411
H           6.0190272    -1.2985117     2.2212128
H           4.7150370    -0.0645387     2.2092479
30
022_C10H16N3O+_10-11-23-24 (135,) energy =    -629.9485784
C           0.5467585     0.1763919    -1.3653781
H           0.8080114     0.0837738    -2.4181871
C          -0.6110569     0.9239881    -1.0079652
H          -1.2245426     1.4069045    -1.7580962
C          -0.9430059     1.0059561     0.3134869
H          -1.8109978     1.5418333     0.6809316
N          -0.1706499     0.3920617     1.2568571
H          -0.4312551     0.4346297     2.2365275
C           0.9837363    -0.3598900     0.9950813
O           1.6096809    -0.8880482     1.9168182
C           1.3245577    -0.4420452    -0.4217522
C           2.5391959    -1.2750296    -0.7292082
H           2.6540077    -1.4145700    -1.8150504
H           2.4127572    -2.2678543    -0.2865179
N           6.2662264     0.2717154     0.7279901
H           6.9211779    -0.1925152     0.0856294
H           6.8368291     0.8431138     1.3605255
C           5.3342522     1.1615260    -0.0820001
H           5.9609783     1.8432288    -0.6623572
H           4.7401082     1.7201557     0.6435642
C           4.4433566     0.2821212    -0.9560634
H           5.0535255    -0.1829171    -1.7597568
H           3.7157853     0.9381703    -1.4447895
N           3.7482624    -0.6787710    -0.1302671
C           4.6407977    -1.5895303     0.5534775
H           5.2775773    -2.1922935    -0.1275994
H           4.0464349    -2.2791867     1.1583022
C           5.5177521    -0.7977824     1.5153150
H           6.2691340    -1.4119753     2.0173797
H           4.8990759    -0.2741678     2.2465522
30
022_C10H16N3O+_10-11-23-24 (150,) energy =    -629.9477643
C           0.6438933     0.1022084    -1.3744703
H           0.9661771    -0.0526610    -2.4028958
C          -0.5229272     0.8804869    -1.1310403
H          -1.0830255     1.3264656    -1.9431530
C          -0.9322400     1.0399700     0.1616953
H          -1.8129767     1.6051853     0.4458077
N          -0.2273879     0.4715753     1.1816489
H          -0.5473372     0.5688328     2.1396366
C           0.9303581    -0.3114624     1.0343672
O           1.4826630    -0.8003909     2.0184289
C           1.3578827    -0.4706944    -0.3535494
C           2.5694398    -1.3385617    -0.5557991
H           2.7003496    -1.5809854    -1.6234946
H           2.4205202    -2.2795036    -0.0168825
N           6.3504975     0.2797972     0.6678689
H           6.9469763    -0.0840747    -0.0862553
H           6.9642483     0.8185287     1.2887082
C           5.2921985     1.1894430     0.0589203
H           5.8170257     1.9549435    -0.5178780
H           4.7626297     1.6452811     0.8975840
C           4.3461943     0.3480522    -0.7918936
H           4.8824033    -0.0217119    -1.6920644
H           3.5444627     1.0054974    -1.1425815
N           3.7790413    -0.7137096     0.0129992
C           4.7890195    -1.6361859     0.4900309
H           5.3637402    -2.1291128    -0.3223801
H           4.3098526    -2.4246401     1.0772711
C           5.7439715    -0.8975612     1.4208411
H           6.5721459    -1.5204153     1.7672938
H           5.2017534    -0.4768782     2.2698130
30
022_C10H16N3O+_10-11-23-24 (165,) energy =    -629.9469724
C           0.6518979     0.0355207    -1.3875055
H           1.0190659    -0.2033698    -2.3842985
C          -0.5152585     0.8397816    -1.2631042
H          -1.0321230     1.2229280    -2.1337927
C          -0.9813458     1.1054596    -0.0072739
H          -1.8677853     1.6987345     0.1883047
N          -0.3303918     0.6160657     1.0856486
H          -0.6923343     0.7900366     2.0175296
C           0.8248635    -0.1873082     1.0573196
O           1.3215482    -0.5978428     2.1028426
C           1.3142051    -0.4606601    -0.2928787
C           2.5143830    -1.3623432    -0.3880500
H           2.6510923    -1.7022433    -1.4295289
H           2.3396300    -2.2453510     0.2356077
N           6.3651689     0.2693622     0.5770298
H           6.8762954     0.0090454    -0.2759725
H           7.0356086     0.7602992     1.1786969
C           5.2209738     1.1999340     0.1965100
H           5.6563471     2.0386362    -0.3521675
H           4.7842185     1.5473740     1.1347095
C           4.2001067     0.4195220    -0.6233253
H           4.6407767     0.1455895    -1.6061043
H           3.3556888     1.0849050    -0.8249156
N           3.7406421    -0.7276694     0.1366954
C           4.8235499    -1.6618040     0.3804840
H           5.2965669    -2.0408057    -0.5502211
H           4.4416229    -2.5310211     0.9243613
C           5.8776733    -1.0004967     1.2615388
H           6.7521088    -1.6337809     1.4295172
H           5.4454275    -0.6903916     2.2147978
30
022_C10H16N3O+_10-11-23-24 (180,) energy =    -629.9506001
C           0.1173011     0.4523387    -1.0427585
H           0.0440764     1.2667640    -1.7600364
C          -0.9539992    -0.4741784    -0.9445369
H          -1.8311023    -0.3892789    -1.5734875
C          -0.8616973    -1.4715116    -0.0166597
H          -1.6319604    -2.2158162     0.1491664
N           0.2513835    -1.5729429     0.7667416
H           0.3189407    -2.3111803     1.4603274
C           1.3515178    -0.7175877     0.7269127
O           2.3199624    -0.9462253     1.4790179
C           1.2336026     0.3619519    -0.2476331
C           2.3189973     1.4092279    -0.2313672
H           2.2653656     1.9819914     0.7046517
H           2.1403989     2.1186531    -1.0569667
N           5.2452923    -0.4933439     0.9288990
H           4.2949214    -0.3931740     1.3553082
H           5.8517376    -1.0401099     1.5465789
C           4.9791647    -1.2169179    -0.3661605
H           4.6284119    -2.2180697    -0.1117743
H           5.9236355    -1.2910240    -0.9093070
C           3.8958131    -0.3720725    -1.1087960
H           2.9858923    -0.9574232    -1.2244012
H           4.2558386    -0.1151890    -2.1185069
N           3.6462966     0.8020974    -0.2861362
C           4.8316303     1.6288896    -0.2809060
H           4.6099917     2.6204181     0.1221815
H           5.2757434     1.7608881    -1.2798563
C           5.8229467     0.8876051     0.6816935
H           5.8987575     1.3754214     1.6558404
H           6.8262047     0.7553203     0.2697654
