22
436_C10H10N2_4-6-18-19 (-165,) energy =    -496.5697103
C           5.8300833     1.0749878    -0.2105633
H           6.6588864     1.7686032    -0.1018727
C           6.0603546    -0.2981241    -0.2594507
H           7.0737473    -0.6855495    -0.1979596
C           5.0005044    -1.1959662    -0.3999942
H           5.2171180    -2.2516876    -0.4791673
C           3.6863021    -0.7194807    -0.4891212
C           3.4520331     0.6635322    -0.4417632
H           2.4334949     1.0219623    -0.5131281
C           4.5190990     1.5468426    -0.3096542
H           4.3199301     2.6146105    -0.2764539
C           1.0910932    -3.2308972    -0.4830972
H           0.6230320    -4.1920429    -0.3230070
C           2.4207819    -2.9267746    -0.2649745
C           3.4788498    -3.8335660     0.2844487
H           2.9979765    -4.7417166     0.6584516
H           4.0268384    -3.3767686     1.1156254
H           4.2120138    -4.1410454    -0.4714919
N           2.5666506    -1.5940040    -0.6041528
N           1.3781345    -1.0447774    -0.9964243
C           0.4997302    -2.0331868    -0.9336256
H          -0.5295840    -1.8483938    -1.2135659
22
436_C10H10N2_4-6-18-19 (-150,) energy =    -496.5710705
C           5.8310658     1.0388845    -0.2076103
H           6.6656181     1.7238954    -0.0881343
C           6.0612955    -0.3168831    -0.4374358
H           7.0776834    -0.6942644    -0.5095543
C           4.9931556    -1.2010555    -0.5974344
H           5.1871140    -2.2425187    -0.8225772
C           3.6791921    -0.7274655    -0.5106200
C           3.4429452     0.6353360    -0.2848845
H           2.4197182     0.9870208    -0.2343107
C           4.5170853     1.5092386    -0.1410871
H           4.3241511     2.5644412     0.0322524
C           1.1012178    -3.2440230    -0.5323749
H           0.6272277    -4.1968682    -0.3426490
C           2.4086546    -2.9075313    -0.2364033
C           3.4526957    -3.7354588     0.4474845
H           2.9646891    -4.5679092     0.9623461
H           4.0133629    -3.1583126     1.1901760
H           4.1784425    -4.1664290    -0.2536156
N           2.5648352    -1.6008053    -0.6502826
N           1.4098522    -1.0894241    -1.1691400
C           0.5368547    -2.0853954    -1.1055757
H          -0.4694884    -1.9344461    -1.4750671
22
436_C10H10N2_4-6-18-19 (-135,) energy =    -496.5711943
C           5.8386679     0.9959607    -0.2160465
H           6.6820495     1.6713927    -0.1034868
C           6.0481340    -0.3290563    -0.5991420
H           7.0542963    -0.6882633    -0.7969651
C           4.9669541    -1.1978475    -0.7538946
H           5.1269255    -2.2157814    -1.0923999
C           3.6701309    -0.7420165    -0.4982131
C           3.4531113     0.5888408    -0.1236246
H           2.4372462     0.9276363     0.0449822
C           4.5377105     1.4522509     0.0117086
H           4.3656434     2.4849352     0.3024112
C           1.1055223    -3.2644947    -0.5891845
H           0.6263234    -4.2142488    -0.3969543
C           2.3810451    -2.8951607    -0.2028518
C           3.3981071    -3.6585456     0.5884500
H           2.8993009    -4.4590511     1.1422179
H           3.9175856    -3.0179677     1.3087327
H           4.1619428    -4.1259193    -0.0455543
N           2.5494169    -1.6052081    -0.6509887
N           1.4431043    -1.1324477    -1.2950588
C           0.5782756    -2.1392948    -1.2575388
H          -0.3952332    -2.0203815    -1.7160619
22
436_C10H10N2_4-6-18-19 (-120,) energy =    -496.5702656
C           5.8658576     0.9730480    -0.2328376
H           6.7182610     1.6379108    -0.1246542
C           6.0400113    -0.3043940    -0.7677007
H           7.0249025    -0.6343689    -1.0863866
C           4.9460795    -1.1574999    -0.9176776
H           5.0671340    -2.1391489    -1.3648173
C           3.6793657    -0.7365718    -0.5039625
C           3.4969520     0.5461158     0.0209150
H           2.4998401     0.8612462     0.3093891
C           4.5920591     1.3981763     0.1527231
H           4.4503544     2.3951520     0.5606086
C           1.1152575    -3.2556434    -0.6244631
H           0.6263468    -4.1969936    -0.4160692
C           2.3543487    -2.8513506    -0.1612331
C           3.3303024    -3.5473438     0.7361617
H           2.8341281    -4.3827121     1.2379675
H           3.7248593    -2.8738623     1.5049001
H           4.1889917    -3.9540062     0.1879110
N           2.5476399    -1.5882284    -0.6645425
N           1.5005951    -1.1648332    -1.4295621
C           0.6392997    -2.1763729    -1.3996540
H          -0.2953332    -2.0934928    -1.9398492
22
436_C10H10N2_4-6-18-19 (-105,) energy =    -496.5690753
C           5.8754106     0.9439325    -0.2512354
H           6.7298758     1.6052399    -0.1368800
C           6.0105979    -0.2565562    -0.9512085
H           6.9670780    -0.5290059    -1.3885800
C           4.9131311    -1.1042362    -1.1057544
H           4.9977781    -2.0287065    -1.6689570
C           3.6845029    -0.7540983    -0.5406131
C           3.5412501     0.4504867     0.1517452
H           2.5713837     0.7126843     0.5621493
C           4.6393854     1.2984651     0.2941047
H           4.5293185     2.2361004     0.8317274
C           1.1266972    -3.2806693    -0.6287660
H           0.6280503    -4.2069168    -0.3797519
C           2.3286210    -2.8276003    -0.1150976
C           3.2553821    -3.4314536     0.8933236
H           2.8087099    -4.3402358     1.3054651
H           3.4544391    -2.7440208     1.7239721
H           4.2249721    -3.7016176     0.4579257
N           2.5517248    -1.6095116    -0.7053695
N           1.5638871    -1.2601274    -1.5783435
C           0.7050479    -2.2735496    -1.5237694
H          -0.1892808    -2.2440164    -2.1333954
22
436_C10H10N2_4-6-18-19 (-90,) energy =    -496.5685103
C           5.9034552     0.9082558    -0.2641865
H           6.7559892     1.5671704    -0.1241882
C           5.9952478    -0.1753146    -1.1403065
H           6.9169606    -0.3599200    -1.6849885
C           4.9017262    -1.0224190    -1.3228085
H           4.9520656    -1.8631142    -2.0079109
C           3.7170111    -0.7808148    -0.6239570
C           3.6182523     0.3043445     0.2495393
H           2.6831131     0.4821683     0.7715965
C           4.7148037     1.1483421     0.4282978
H           4.6390190     1.9945914     1.1053828
C           1.1231625    -3.2731607    -0.6400778
H           0.5883465    -4.1596851    -0.3291950
C           2.2970047    -2.7842920    -0.0947178
C           3.1491126    -3.2908377     1.0263228
H           2.7114268    -4.2034924     1.4393522
H           3.2349424    -2.5589695     1.8385555
H           4.1675979    -3.5245281     0.6934365
N           2.5952706    -1.6503732    -0.8058917
N           1.6782159    -1.3828204    -1.7786499
C           0.7916535    -2.3683078    -1.6716959
H          -0.0573250    -2.3926092    -2.3432823
22
436_C10H10N2_4-6-18-19 (-75,) energy =    -496.5690497
C           5.9126336     0.8912466    -0.2830836
H           6.7583761     1.5567223    -0.1334892
C           5.9460059    -0.0629219    -1.3025663
H           6.8171349    -0.1421446    -1.9469160
C           4.8641240    -0.9221107    -1.4940180
H           4.8712473    -1.6687410    -2.2816671
C           3.7418404    -0.8130963    -0.6695750
C           3.7010835     0.1418431     0.3490591
H           2.8145762     0.2214741     0.9709772
C           4.7907036     0.9919148     0.5418571
H           4.7586842     1.7376250     1.3313214
C           1.1163550    -3.2703654    -0.6304941
H           0.5427783    -4.1141343    -0.2731798
C           2.2594411    -2.7470399    -0.0531359
C           3.0229450    -3.1640228     1.1648508
H           2.5988010    -4.0884213     1.5659331
H           2.9876180    -2.4068533     1.9573746
H           4.0802131    -3.3455819     0.9383444
N           2.6404265    -1.7038231    -0.8586461
N           1.7990346    -1.5225570    -1.9164927
C           0.8826276    -2.4750303    -1.7732353
H           0.0831581    -2.5552083    -2.4990082
22
436_C10H10N2_4-6-18-19 (-60,) energy =    -496.5702001
C           5.8450962     1.0442285    -0.1548333
H           6.6025254     1.8133497    -0.2776910
C           4.6459846     1.3410005     0.4981481
H           4.4673763     2.3414947     0.8822483
C           3.6679811     0.3599039     0.6510723
H           2.7304445     0.5713702     1.1542596
C           3.9010907    -0.9297467     0.1642881
C           5.1016746    -1.2352334    -0.4815505
H           5.2800410    -2.2463347    -0.8337741
C           6.0696995    -0.2432431    -0.6445718
H           7.0044139    -0.4825993    -1.1440404
C           1.3878318    -3.4972489     0.0037015
H           0.7130980    -4.2104667    -0.4487084
C           2.2596059    -2.6535211    -0.6607579
C           2.5030421    -2.4677522    -2.1264540
H           1.6957773    -2.9399022    -2.6932085
H           3.4467563    -2.9189452    -2.4564578
H           2.5366156    -1.4074478    -2.4002717
N           2.8902057    -1.9233613     0.3168485
N           2.4730612    -2.2593991     1.5714131
C           1.5650906    -3.2093406     1.3741254
H           1.0694067    -3.6551234     2.2272265
22
436_C10H10N2_4-6-18-19 (-45,) energy =    -496.5711544
C           5.8226429     1.0777988    -0.1366284
H           6.5763151     1.8522028    -0.2482614
C           4.6864033     1.3097401     0.6429050
H           4.5525838     2.2669767     1.1392307
C           3.7128316     0.3232616     0.7821944
H           2.8259074     0.4863169     1.3839841
C           3.8835566    -0.9125820     0.1482224
C           5.0267176    -1.1575343    -0.6184030
H           5.1742142    -2.1300716    -1.0754495
C           5.9881473    -0.1566164    -0.7652836
H           6.8756433    -0.3518939    -1.3608814
C           1.3623998    -3.4762076     0.0145640
H           0.7021703    -4.2108368    -0.4247924
C           2.2899447    -2.7005665    -0.6566802
C           2.6029837    -2.6365262    -2.1199394
H           1.7640442    -3.0485779    -2.6879940
H           3.4951197    -3.2171499    -2.3860365
H           2.7697421    -1.6077505    -2.4557702
N           2.8802287    -1.9097040     0.3020856
N           2.3706989    -2.1376347     1.5473318
C           1.4589486    -3.0859426     1.3670850
H           0.9033764    -3.4571980     2.2189185
22
436_C10H10N2_4-6-18-19 (-30,) energy =    -496.5711356
C           5.8166783     1.1092953    -0.1128704
H           6.5689700     1.8874154    -0.2054966
C           4.7479044     1.2638697     0.7737225
H           4.6651056     2.1646019     1.3758322
C           3.7762314     0.2737998     0.8922033
H           2.9444234     0.3796157     1.5779696
C           3.8712874    -0.8904036     0.1184437
C           4.9561305    -1.0643638    -0.7483582
H           5.0717626    -1.9873397    -1.3034707
C           5.9158303    -0.0581643    -0.8688678
H           6.7533910    -0.2018035    -1.5460146
C           1.3413413    -3.4507192    -0.0112256
H           0.6964179    -4.2031660    -0.4430708
C           2.3222762    -2.7359318    -0.6724189
C           2.6981286    -2.7820316    -2.1215526
H           1.8816749    -3.2402834    -2.6869310
H           3.5989483    -3.3806951    -2.3065292
H           2.8762314    -1.7824071    -2.5313417
N           2.8776986    -1.8969131     0.2708341
N           2.2764759    -2.0295887     1.4894715
C           1.3607279    -2.9729516     1.3158443
H           0.7458603    -3.2770105     2.1534085
22
436_C10H10N2_4-6-18-19 (-15,) energy =    -496.5698609
C           5.8305787     1.1353100    -0.0891919
H           6.5883340     1.9098788    -0.1646960
C           4.8449804     1.2024171     0.8982374
H           4.8322316     2.0315294     1.6005759
C           3.8682261     0.2159939     0.9978308
H           3.1034562     0.2594396     1.7622857
C           3.8608788    -0.8574597     0.0944298
C           4.8701878    -0.9484818    -0.8729031
H           4.9317317    -1.8016290    -1.5339314
C           5.8377577     0.0531927    -0.9671021
H           6.6107040    -0.0303394    -1.7263203
C           1.3172715    -3.4152207    -0.0300219
H           0.6906956    -4.1892188    -0.4505832
C           2.3487576    -2.7609319    -0.6750475
C           2.7884678    -2.9338809    -2.0963529
H           2.0337625    -3.5222503    -2.6256519
H           3.7411622    -3.4706803    -2.1852516
H           2.8949160    -1.9762152    -2.6171415
N           2.8665964    -1.8672603     0.2441248
N           2.1791175    -1.9084375     1.4245014
C           1.2611791    -2.8483931     1.2596863
H           0.5896105    -3.0844993     2.0753316
22
436_C10H10N2_4-6-18-19 (0,) energy =    -496.5686047
C           5.8642961     1.1274887    -0.0408072
H           6.6535292     1.8726313    -0.0809337
C           5.0019917     1.0635490     1.0558441
H           5.1152076     1.7619406     1.8807238
C           3.9893000     0.1116332     1.1131681
H           3.3202821     0.0602983     1.9613097
C           3.8187913    -0.8044275     0.0617811
C           4.6829331    -0.7421704    -1.0396946
H           4.5889097    -1.4257758    -1.8688589
C           5.6948378     0.2192006    -1.0824619
H           6.3529492     0.2484558    -1.9467499
C           1.2778108    -3.3808533    -0.0560528
H           0.7070566    -4.2147963    -0.4397753
C           2.3501500    -2.7747635    -0.6808316
C           2.9316903    -3.1497384    -2.0094314
H           2.3605752    -3.9923599    -2.4088409
H           3.9788524    -3.4661907    -1.9387188
H           2.8725298    -2.3359307    -2.7414774
N           2.7647781    -1.7622075     0.1670034
N           1.9931439    -1.7147222     1.2949655
C           1.1048449    -2.6849950     1.1567228
H           0.3710079    -2.8491834     1.9355090
22
436_C10H10N2_4-6-18-19 (15,) energy =    -496.5698609
C           5.8903294     1.0742527    -0.0458213
H           6.7159868     1.7795575    -0.0719988
C           5.1667566     0.8741283     1.1320225
H           5.4250388     1.4267770     2.0313225
C           4.1107328    -0.0314322     1.1740188
H           3.5434359    -0.1893376     2.0819790
C           3.7676653    -0.7624907     0.0266908
C           4.4661327    -0.5364812    -1.1665307
H           4.1761785    -1.0310979    -2.0829848
C           5.5291867     0.3677971    -1.1913571
H           6.0635248     0.5276268    -2.1239730
C           1.2434645    -3.3400792    -0.0835530
H           0.7279492    -4.2273965    -0.4233409
C           2.3564178    -2.7689099    -0.6694014
C           3.1206313    -3.2729456    -1.8548521
H           2.7858918    -4.2896470    -2.0788722
H           4.1995049    -3.3070152    -1.6689968
H           2.9553744    -2.6696638    -2.7561999
N           2.6608502    -1.6575000     0.0946508
N           1.8081100    -1.5300403     1.1549298
C           0.9515400    -2.5326036     1.0347218
H           0.1538355    -2.6400024     1.7587103
22
436_C10H10N2_4-6-18-19 (30,) energy =    -496.5711354
C           5.8762576     1.0445235    -0.0604225
H           6.7119892     1.7379099    -0.0881352
C           5.2579318     0.7337049     1.1533099
H           5.6107404     1.1855357     2.0763978
C           4.1910678    -0.1598308     1.1967886
H           3.7008428    -0.4065651     2.1307147
C           3.7297895    -0.7511671     0.0132722
C           4.3249775    -0.4196030    -1.2091205
H           3.9349663    -0.8225207    -2.1359528
C           5.4031196     0.4661997    -1.2377721
H           5.8598359     0.7157659    -2.1915967
C           1.2185892    -3.3299317    -0.1138446
H           0.7271768    -4.2366728    -0.4377327
C           2.3765491    -2.7928131    -0.6438869
C           3.2470507    -3.3364664    -1.7346905
H           3.0208374    -4.3972434    -1.8753791
H           4.3114966    -3.2446886    -1.4947683
H           3.0808760    -2.8372389    -2.6975683
N           2.6253120    -1.6452451     0.0795618
N           1.6939167    -1.4471908     1.0581033
C           0.8444584    -2.4574269     0.9294805
H          -0.0085542    -2.5224695     1.5929530
22
436_C10H10N2_4-6-18-19 (45,) energy =    -496.5711544
C           5.8687127     1.0314754    -0.0970145
H           6.7099807     1.7176822    -0.1365700
C           5.3562709     0.6183814     1.1355842
H           5.7990220     0.9816338     2.0589314
C           4.2833205    -0.2681389     1.1922765
H           3.8727522    -0.5980631     2.1398821
C           3.7073574    -0.7348410     0.0053464
C           4.2036939    -0.3113486    -1.2311116
H           3.7292789    -0.6443441    -2.1479138
C           5.2897401     0.5639555    -1.2771033
H           5.6713084     0.8915322    -2.2402389
C           1.2049030    -3.3159429    -0.1434375
H           0.7308948    -4.2357815    -0.4562393
C           2.4055556    -2.8114166    -0.6086539
C           3.3624128    -3.3879256    -1.6062826
H           3.1786621    -4.4615434    -1.7056705
H           4.4040521    -3.2471410    -1.2994904
H           3.2510153    -2.9430862    -2.6030581
N           2.6110711    -1.6387305     0.0810664
N           1.6062868    -1.3751137     0.9659757
C           0.7603159    -2.3884363     0.8224771
H          -0.1425466    -2.4148246     1.4193374
22
436_C10H10N2_4-6-18-19 (60,) energy =    -496.5702000
C           5.8575641     1.0278119    -0.1422159
H           6.7037314     1.7070175    -0.1971582
C           5.4570148     0.5076500     1.0912091
H           5.9917273     0.7790361     1.9972240
C           4.3772130    -0.3703192     1.1658094
H           4.0520563    -0.7850444     2.1140496
C           3.6836713    -0.7132640     0.0013470
C           4.0736223    -0.1894322    -1.2336856
H           3.5121245    -0.4447488    -2.1268471
C           5.1656177     0.6769228    -1.3023620
H           5.4660904     1.0863530    -2.2628479
C           1.1869744    -3.2969719    -0.1584669
H           0.7305463    -4.2307745    -0.4556333
C           2.4255207    -2.8241977    -0.5532993
C           3.4601969    -3.4384781    -1.4444284
H           3.2297593    -4.4967014    -1.5956426
H           4.4632931    -3.3670111    -1.0096144
H           3.4994623    -2.9639437    -2.4325247
N           2.5868609    -1.6199605     0.0872251
N           1.5148933    -1.2940436     0.8653829
C           0.6744522    -2.3119609     0.7130020
H          -0.2732520    -2.3007113     1.2363941
22
436_C10H10N2_4-6-18-19 (75,) energy =    -496.5690497
C           5.8451089     1.0259378    -0.1761991
H           6.6927176     1.7034261    -0.2317346
C           5.5524852     0.3695452     1.0214768
H           6.1716704     0.5342618     1.8988625
C           4.4682168    -0.5047036     1.0947828
H           4.2244448    -1.0225643     2.0168968
C           3.6687113    -0.7087608    -0.0322736
C           3.9540816    -0.0520364    -1.2316296
H           3.3130713    -0.2120418    -2.0933235
C           5.0461294     0.8137881    -1.3013661
H           5.2668455     1.3280994    -2.2325672
C           1.1994527    -3.3169393    -0.2138776
H           0.7723458    -4.2710931    -0.4891601
C           2.4660598    -2.8590182    -0.5299047
C           3.5802705    -3.5032039    -1.2940123
H           3.3089107    -4.5329521    -1.5415200
H           4.5097579    -3.5270788    -0.7130051
H           3.7988839    -2.9788738    -2.2320596
N           2.5667467    -1.6156877     0.0413222
N           1.4305618    -1.2461297     0.6988345
C           0.6104132    -2.2807889     0.5427313
H          -0.3791415    -2.2438642     0.9806155
22
436_C10H10N2_4-6-18-19 (90,) energy =    -496.5685104
C           5.8424436     1.0366953    -0.2008006
H           6.6933949     1.7109482    -0.2438242
C           5.6513454     0.2243446     0.9188894
H           6.3505666     0.2666217     1.7493196
C           4.5588705    -0.6415543     0.9771085
H           4.3891895    -1.2722397     1.8443521
C           3.6596981    -0.6914588    -0.0902940
C           3.8433085     0.1224621    -1.2101740
H           3.1242176     0.0783584    -2.0223441
C           4.9374836     0.9865706    -1.2631511
H           5.0805573     1.6224524    -2.1323471
C           1.2028652    -3.3166486    -0.2022024
H           0.7977049    -4.2967472    -0.4116162
C           2.4884075    -2.8810020    -0.4703478
C           3.6557077    -3.5789250    -1.0946205
H           3.3753612    -4.6016311    -1.3602855
H           4.5145488    -3.6292544    -0.4144764
H           3.9953841    -3.0733143    -2.0065949
N           2.5407271    -1.5816231    -0.0351542
N           1.3598979    -1.1573462     0.4981997
C           0.5564680    -2.2119106     0.3933068
H          -0.4627781    -2.1393466     0.7514347
22
436_C10H10N2_4-6-18-19 (105,) energy =    -496.5690753
C           5.8198688     1.0654312    -0.2307787
H           6.6643487     1.7487971    -0.2504868
C           5.7266078     0.0993480     0.7729283
H           6.4933815     0.0330118     1.5397551
C           4.6394406    -0.7747004     0.8046600
H           4.5413251    -1.5143534     1.5935206
C           3.6556986    -0.6898757    -0.1835417
C           3.7387436     0.2813334    -1.1839200
H           2.9508430     0.3437450    -1.9276538
C           4.8226829     1.1587675    -1.2042911
H           4.8883241     1.9152295    -1.9813142
C           1.2097889    -3.3263376    -0.2096228
H           0.8191333    -4.3257390    -0.3406797
C           2.5119341    -2.9147669    -0.4305049
C           3.7140515    -3.6713659    -0.9026456
H           3.4248120    -4.6909762    -1.1709642
H           4.4938580    -3.7348361    -0.1341888
H           4.1669788    -3.2035763    -1.7848027
N           2.5317350    -1.5717862    -0.1513353
N           1.3156670    -1.1002360     0.2471056
C           0.5216772    -2.1658601     0.2061570
H          -0.5207962    -2.0610754     0.4792988
22
436_C10H10N2_4-6-18-19 (120,) energy =    -496.5702655
C           5.8167066     1.0877729    -0.2584541
H           6.6573686     1.7758015    -0.2739999
C           5.8133489     0.0091203     0.6274123
H           6.6451150    -0.1405535     1.3102131
C           4.7309128    -0.8708786     0.6574720
H           4.7046399    -1.6916803     1.3672730
C           3.6623902    -0.6827160    -0.2232993
C           3.6546781     0.4028153    -1.1039952
H           2.8017066     0.5448640    -1.7589912
C           4.7324186     1.2865233    -1.1168109
H           4.7265125     2.1302793    -1.8012449
C           1.2003428    -3.3043958    -0.2235785
H           0.8060027    -4.3071559    -0.3105776
C           2.5216112    -2.9235616    -0.3739009
C           3.7350397    -3.7360849    -0.7049789
H           3.4274780    -4.7120163    -1.0907256
H           4.3738417    -3.9125350     0.1691492
H           4.3535206    -3.2482375    -1.4663560
N           2.5407533    -1.5619513    -0.1955538
N           1.3029405    -1.0519326     0.0662382
C           0.4988122    -2.1097217     0.0464100
H          -0.5597601    -1.9749324     0.2293735
22
436_C10H10N2_4-6-18-19 (135,) energy =    -496.5711948
C           5.7969240     1.1025375    -0.2880972
H           6.6304084     1.7988323    -0.3134401
C           5.8758140    -0.0575946     0.4827284
H           6.7665893    -0.2643842     1.0695024
C           4.8038500    -0.9501821     0.5256240
H           4.8499657    -1.8303229     1.1577201
C           3.6558384    -0.6909378    -0.2293105
C           3.5672370     0.4763748    -0.9961571
H           2.6578979     0.6696535    -1.5537683
C           4.6361718     1.3691637    -1.0189095
H           4.5636141     2.2746091    -1.6151149
C           1.2024714    -3.3228990    -0.2575498
H           0.8120811    -4.3287084    -0.3250587
C           2.5337146    -2.9532430    -0.3162064
C           3.7525509    -3.8001115    -0.5175626
H           3.4600005    -4.7555762    -0.9622904
H           4.2717121    -4.0223685     0.4231603
H           4.4757192    -3.3203547    -1.1852771
N           2.5470009    -1.5820215    -0.2016218
N           1.2918036    -1.0602767    -0.0815232
C           0.4867554    -2.1156781    -0.1116259
H          -0.5825680    -1.9702558    -0.0250880
22
436_C10H10N2_4-6-18-19 (150,) energy =    -496.5710705
C           5.7910266     1.1234366    -0.3170142
H           6.6215918     1.8224185    -0.3567513
C           5.9328181    -0.1011183     0.3343709
H           6.8721924    -0.3585734     0.8159862
C           4.8675094    -1.0010498     0.3937131
H           4.9771163    -1.9276290     0.9436155
C           3.6510352    -0.6802427    -0.2191456
C           3.5022666     0.5516034    -0.8706140
H           2.5494916     0.7893462    -1.3277081
C           4.5680675     1.4463914    -0.9105320
H           4.4429042     2.3997324    -1.4166912
C           1.1953079    -3.3149933    -0.3035175
H           0.8044562    -4.3212023    -0.3614617
C           2.5295755    -2.9567754    -0.2631725
C           3.7354215    -3.8418903    -0.3385694
H           3.4354299    -4.8180785    -0.7300654
H           4.1983451    -4.0121722     0.6415778
H           4.5051935    -3.4321125    -1.0008167
N           2.5484440    -1.5789860    -0.1955953
N           1.2894303    -1.0507097    -0.2179479
C           0.4801572    -2.0996587    -0.2718421
H          -0.5911365    -1.9442204    -0.2860191
22
436_C10H10N2_4-6-18-19 (165,) energy =    -496.5697105
C           5.7890517     1.1591925    -0.3234420
H           6.6106580     1.8689179    -0.3562294
C           5.9886941    -0.1295791     0.1664421
H           6.9677378    -0.4318618     0.5282994
C           4.9376620    -1.0474265     0.2129970
H           5.1152808    -2.0245782     0.6388695
C           3.6650488    -0.6776726    -0.2404496
C           3.4610840     0.6206398    -0.7331770
H           2.4738289     0.8972001    -1.0793396
C           4.5161965     1.5272071    -0.7657765
H           4.3404849     2.5288207    -1.1489257
C           1.2013334    -3.3160616    -0.3531076
H           0.8067327    -4.3221185    -0.3785762
C           2.5319946    -2.9666421    -0.2285424
C           3.7078420    -3.8915708    -0.1546332
H           3.3696422    -4.9032844    -0.3953975
H           4.1593426    -3.9283808     0.8445651
H           4.4943294    -3.6216513    -0.8675868
N           2.5651858    -1.5842836    -0.2417545
N           1.3147851    -1.0555759    -0.4000722
C           0.4999134    -2.0975378    -0.4542246
H          -0.5645709    -1.9348460    -0.5656632
22
436_C10H10N2_4-6-18-19 (180,) energy =    -496.5686048
C           5.8437917     1.0995052    -0.2726764
H           6.6788241     1.7929362    -0.2324292
C           6.0414118    -0.2601519    -0.0468271
H           7.0359015    -0.6396171     0.1721165
C           4.9741515    -1.1593355    -0.0964713
H           5.1739046    -2.2037693     0.0849968
C           3.6803485    -0.6995271    -0.3767226
C           3.4802497     0.6722752    -0.6046155
H           2.4803594     1.0231437    -0.8205736
C           4.5536407     1.5554722    -0.5517039
H           4.3751860     2.6123157    -0.7312564
C           1.0810247    -3.2189863    -0.4512952
H           0.6252022    -4.1970821    -0.3878342
C           2.4200000    -2.9335082    -0.2691074
C           3.5022516    -3.9189401     0.0496860
H           3.0524831    -4.9134011     0.1166420
H           3.9915443    -3.7141048     1.0089942
H           4.2777041    -3.9601438    -0.7240565
N           2.5469648    -1.5659711    -0.4418370
N           1.3396905    -0.9891838    -0.7243412
C           0.4659718    -1.9822642    -0.7291299
H          -0.5764738    -1.7724893    -0.9322992
