22
232_C7H11N3O_5-7-17-16 (-165,) energy =    -512.8576986
C           1.6225269    -0.3916090    -1.5154963
C           0.3017606    -0.3480501    -2.2754785
H          -0.1177024    -1.3598598    -2.3233063
H           0.4973503    -0.0228612    -3.2996221
H          -0.4429539     0.3129209    -1.8196695
N           1.5422695    -0.0164886    -0.1922400
H           0.6135867     0.0980917     0.1899266
C           2.6135016    -0.2550581     0.7938510
C           3.0002999    -1.7343547     0.9298507
H           3.7943700    -1.8323207     1.6738457
H           3.3689534    -2.1168784    -0.0237603
H           2.1325516    -2.3233449     1.2470084
H           2.1790987     0.0718803     1.7486899
O           2.6701516    -0.7253761    -2.0486114
C           5.7806618     1.4837844     0.6173260
H           6.8203935     1.5797203     0.9000091
N           5.0145159     0.4254606     1.0555808
C           3.8208863     0.6124873     0.5282161
N           3.7811520     1.7563920    -0.2157919
H           2.9969320     2.0613968    -0.7722932
C           5.0411417     2.3193839    -0.1799082
H           5.2802474     3.2261165    -0.7147661
22
232_C7H11N3O_5-7-17-16 (-150,) energy =    -512.8572752
C           1.6960462    -0.3571157    -1.5481961
C           0.3927661    -0.3501337    -2.3392094
H          -0.0146347    -1.3675868    -2.3714296
H           0.6090754    -0.0474330    -3.3659810
H          -0.3691510     0.3134256    -1.9167289
N           1.5738042     0.0285989    -0.2299260
H           0.6327487     0.0911366     0.1349027
C           2.6371242    -0.1685254     0.7760091
C           3.0198094    -1.6404677     0.9749726
H           3.7974167    -1.7191695     1.7382928
H           3.4102682    -2.0562581     0.0443674
H           2.1428645    -2.2157013     1.2919439
H           2.1937340     0.2019478     1.7113851
O           2.7627190    -0.6728359    -2.0516603
C           5.8375446     1.4692484     0.3535133
H           6.9119066     1.4911894     0.4770744
N           5.0920505     0.3855060     0.7649967
C           3.8439772     0.6825601     0.4671346
N           3.7516046     1.9193840    -0.1078668
H           2.9102685     2.3204719    -0.4948832
C           5.0309115     2.4303353    -0.1995785
H           5.2341096     3.3948461    -0.6400260
22
232_C7H11N3O_5-7-17-16 (-135,) energy =    -512.8559770
C           1.7250562    -0.3540043    -1.5597520
C           0.4433193    -0.3709892    -2.3860936
H           0.1116835    -1.4081710    -2.5113546
H           0.6648802     0.0251924    -3.3798856
H          -0.3750239     0.2047501    -1.9412091
N           1.5604686     0.0260356    -0.2457170
H           0.6110393     0.0664452     0.0997570
C           2.6091181    -0.1160263     0.7845992
C           2.9932769    -1.5778281     1.0455158
H           3.7346948    -1.6350301     1.8462903
H           3.4294871    -2.0157053     0.1460039
H           2.1050358    -2.1491818     1.3367110
H           2.1492740     0.2924412     1.6957132
O           2.8092982    -0.6476615    -2.0376105
C           5.8217605     1.4276275     0.1421973
H           6.9023266     1.3878761     0.1161243
N           5.0762773     0.3361533     0.5305630
C           3.8197950     0.7207043     0.4543656
N           3.7234568     2.0210985     0.0371221
H           2.8657175     2.5039433    -0.1867382
C           5.0065294     2.4818231    -0.1809290
H           5.2055325     3.4830634    -0.5325111
22
232_C7H11N3O_5-7-17-16 (-120,) energy =    -512.8539200
C           1.7445444    -0.4151318    -1.5782563
C           0.4748504    -0.4335304    -2.4242510
H           0.1318267    -1.4687532    -2.5342240
H           0.7176665    -0.0599405    -3.4217822
H          -0.3432359     0.1615903    -2.0049303
N           1.5608329    -0.0106430    -0.2754381
H           0.6055816     0.0610629     0.0474067
C           2.5894891    -0.1094121     0.7809813
C           2.9644392    -1.5622817     1.0995755
H           3.6791407    -1.5978209     1.9263217
H           3.4293496    -2.0258275     0.2280483
H           2.0670215    -2.1250012     1.3787749
H           2.1105753     0.3332775     1.6653175
O           2.8312341    -0.7327256    -2.0339830
C           5.8018791     1.3645941    -0.0202691
H           6.8667509     1.2801195    -0.1899431
N           5.0422238     0.2648480     0.3080308
C           3.8125587     0.7108768     0.4525484
N           3.7481711     2.0615255     0.2251448
H           2.9063014     2.6177390     0.1914586
C           5.0215003     2.4904690    -0.0904190
H           5.2402012     3.5226862    -0.3195447
22
232_C7H11N3O_5-7-17-16 (-105,) energy =    -512.8516658
C           1.9440685    -0.6929579    -1.4128506
C           0.7426014    -0.5543421    -2.3446461
H           0.3368634    -1.5506824    -2.5501047
H           1.0887028    -0.1411292    -3.2959463
H          -0.0603179     0.0783707    -1.9519816
N           1.7585320    -0.1736521    -0.1549036
H           0.8307414     0.1472549     0.0805183
C           2.7238431    -0.2727089     0.9596660
C           3.0366527    -1.7267782     1.3366076
H           3.6714765    -1.7567606     2.2272944
H           3.5653518    -2.2162686     0.5183556
H           2.1058684    -2.2648323     1.5448396
H           2.2084742     0.2053577     1.8034567
O           2.9799353    -1.2268687    -1.7762191
C           5.9824675     1.1130400     0.1697552
H           7.0216257     0.9938230    -0.1056996
N           5.1666782     0.0227646     0.3642187
C           3.9887922     0.5090339     0.6945789
N           4.0145541     1.8822055     0.7135558
H           3.2300102     2.4931853     0.8886967
C           5.2903505     2.2805427     0.3716947
H           5.5738943     3.3211915     0.3208964
22
232_C7H11N3O_5-7-17-16 (-90,) energy =    -512.8507763
C           1.7967908    -0.9648506    -1.2540378
C           0.7493142    -0.6132901    -2.3080074
H           0.4775418    -1.5252044    -2.8434201
H           1.1866499     0.0833939    -3.0332001
H          -0.1539819    -0.1557379    -1.8901155
N           1.7196178    -0.2008201    -0.1107614
H           1.0823340     0.5829032    -0.1464427
C           2.7271417    -0.1473457     0.9693070
C           3.1359825    -1.5367709     1.4712587
H           3.7290812    -1.4289322     2.3854007
H           3.7289370    -2.0544473     0.7194704
H           2.2437841    -2.1295733     1.6950112
H           2.2118936     0.3705357     1.7902224
O           2.6155462    -1.8518944    -1.4324160
C           5.8045718     1.4014166    -0.1770358
H           6.7779309     1.3425459    -0.6452860
N           5.0301472     0.2782900     0.0017085
C           3.9285444     0.6905490     0.5951258
N           3.9664896     2.0489239     0.8039592
H           3.2624302     2.6057300     1.2669787
C           5.1696748     2.5145394     0.3134683
H           5.4489890     3.5560800     0.3679153
22
232_C7H11N3O_5-7-17-16 (-75,) energy =    -512.8507317
C           1.4176074    -1.0482398    -1.6069875
C           0.4743570    -0.6006635    -2.7211064
H           0.1123023    -1.4870889    -3.2453253
H           1.0310857     0.0129633    -3.4396377
H          -0.3799131    -0.0182173    -2.3591418
N           1.4203162    -0.2097811    -0.5120766
H           0.9306425     0.6660336    -0.6412895
C           2.4075656    -0.1914228     0.5842285
C           2.8190386    -1.5903044     1.0603963
H           3.3900089    -1.4907889     1.9901397
H           3.4321369    -2.0885845     0.3120628
H           1.9326191    -2.2015874     1.2533236
H           1.8859538     0.3024916     1.4167018
O           2.0836982    -2.0660377    -1.7019471
C           5.4271254     1.4518266    -0.5817973
H           6.3266269     1.4658307    -1.1826443
N           4.5891999     0.3606634    -0.5772473
C           3.6071754     0.6651981     0.2470169
N           3.7835552     1.9214688     0.7740014
H           3.1877572     2.3763097     1.4511151
C           4.9537319     2.4343904     0.2514137
H           5.3233359     3.4129332     0.5186774
22
232_C7H11N3O_5-7-17-16 (-60,) energy =    -512.8510095
C           1.3853323    -1.1055250    -1.5917254
C           0.5066233    -0.6818733    -2.7655576
H           0.1186114    -1.5792539    -3.2510502
H           1.1211943    -0.1402209    -3.4946726
H          -0.3286213    -0.0368230    -2.4717905
N           1.3965138    -0.1967683    -0.5530935
H           0.9687267     0.6951412    -0.7669565
C           2.3668138    -0.1306422     0.5507802
C           2.8023159    -1.5054688     1.0788056
H           3.3811219    -1.3580192     1.9976633
H           3.4126239    -2.0296058     0.3460074
H           1.9275587    -2.1209893     1.3079157
H           1.8334540     0.3779289     1.3677145
O           1.9929798    -2.1636545    -1.5960670
C           5.3104557     1.5772579    -0.7119848
H           6.1211186     1.6681308    -1.4225232
N           4.3909492     0.5576721    -0.8049652
C           3.5512665     0.7405004     0.1940606
N           3.8992259     1.8453173     0.9305500
H           3.4269425     2.1888114     1.7547449
C           5.0326770     2.3887759     0.3594244
H           5.5108650     3.2712723     0.7569454
22
232_C7H11N3O_5-7-17-16 (-45,) energy =    -512.8516363
C           0.7757216    -0.5947142    -0.8729156
C          -0.5121034     0.2196419    -0.9426501
H          -1.0447029     0.2580505     0.0140748
H          -1.1609128    -0.2174516    -1.7033809
H          -0.2711170     1.2465544    -1.2432758
N           1.4177409    -0.5057671     0.3473326
H           1.0609401     0.2222732     0.9536760
C           2.8216279    -0.8382411     0.6144874
C           3.3116200    -2.1081054    -0.1009491
H           4.3070608    -2.3634113     0.2805727
H           3.3620742    -1.9580439    -1.1775481
H           2.6341890    -2.9430191     0.1015887
H           2.8684208    -1.0408940     1.6951221
O           1.1636974    -1.2685338    -1.8132621
C           4.7159155     2.0416376    -0.5265810
H           4.9044569     2.8260868    -1.2471669
N           3.6741587     1.1559968    -0.6910795
C           3.7204999     0.3514327     0.3511095
N           4.7581128     0.6867344     1.1839130
H           5.0143824     0.2178609     2.0410886
C           5.4080249     1.7707212     0.6262864
H           6.2645215     2.2312223     1.0952319
22
232_C7H11N3O_5-7-17-16 (-30,) energy =    -512.8525964
C           0.8283345    -0.5572775    -0.8972730
C          -0.4550516     0.2552955    -1.0203266
H          -1.0566020     0.2402573    -0.1047214
H          -1.0431326    -0.1397103    -1.8502189
H          -0.1945089     1.2969741    -1.2438347
N           1.3892537    -0.5212131     0.3671094
H           1.0054542     0.1996234     0.9659731
C           2.7887814    -0.8264846     0.6728902
C           3.3061671    -2.1147201     0.0098454
H           4.2977206    -2.3514170     0.4133725
H           3.3690642    -2.0037775    -1.0709316
H           2.6324264    -2.9470584     0.2351781
H           2.8140997    -0.9975671     1.7598729
O           1.2841228    -1.1915299    -1.8347949
C           4.5476969     2.1463732    -0.4500956
H           4.6285365     3.0108319    -1.0951439
N           3.4625688     1.2995423    -0.5218420
C           3.6715183     0.3724841     0.3903147
N           4.8552713     0.5886487     1.0485801
H           5.2492014     0.0154172     1.7809358
C           5.4285345     1.7264769     0.5127208
H           6.3720883     2.1147873     0.8656981
22
232_C7H11N3O_5-7-17-16 (-15,) energy =    -512.8537886
C           0.8913878    -0.5238895    -0.9173831
C          -0.3970747     0.2692793    -1.0884756
H          -1.0548320     0.2022925    -0.2148810
H          -0.9228757    -0.0972120    -1.9715668
H          -0.1410583     1.3238042    -1.2470566
N           1.3722764    -0.5334109     0.3810528
H           0.9559491     0.1741410     0.9742014
C           2.7656562    -0.8133067     0.7290020
C           3.3044128    -2.1228512     0.1272195
H           4.2858041    -2.3493572     0.5614193
H           3.3914517    -2.0519936    -0.9554345
H           2.6260368    -2.9466711     0.3696727
H           2.7632029    -0.9458957     1.8214356
O           1.4217372    -1.1099406    -1.8473387
C           4.4159949     2.2387611    -0.3496753
H           4.4132935     3.1706762    -0.8985455
N           3.3082691     1.4178273    -0.3299127
C           3.6398560     0.3872114     0.4204940
N           4.9234366     0.5119529     0.8861421
H           5.4212317    -0.1517055     1.4618558
C           5.4327002     1.6992709     0.3936266
H           6.4350115     2.0313588     0.6191250
22
232_C7H11N3O_5-7-17-16 (0,) energy =    -512.8550207
C           0.9383870    -0.4886467    -0.9389973
C          -0.3585952     0.2770731    -1.1560659
H          -1.0646625     0.1539449    -0.3275652
H          -0.8198175    -0.0629929    -2.0846680
H          -0.1230870     1.3438375    -1.2522175
N           1.3469458    -0.5360880     0.3832458
H           0.8999322     0.1573075     0.9708353
C           2.7328551    -0.7983147     0.7728977
C           3.2818954    -2.1283477     0.2303065
H           4.2481125    -2.3539069     0.6989200
H           3.3980660    -2.0938544    -0.8516758
H           2.5913990    -2.9388916     0.4827498
H           2.7006792    -0.8937199     1.8684837
O           1.5411197    -1.0250073    -1.8553411
C           4.3210823     2.3144353    -0.2204053
H           4.2679663     3.3054206    -0.6503505
N           3.2001416     1.5182371    -0.1158293
C           3.6080884     0.3962250     0.4420454
N           4.9525452     0.4392851     0.7035234
H           5.5122375    -0.3035316     1.0960491
C           5.4214477     1.6683611     0.2780158
H           6.4597849     1.9494594     0.3706379
22
232_C7H11N3O_5-7-17-16 (15,) energy =    -512.8561478
C           1.0074627    -0.4705706    -0.9451536
C          -0.3083215     0.2436932    -1.2150255
H          -1.0490096     0.0724095    -0.4264741
H          -0.7061527    -0.0957072    -2.1727717
H          -0.1169593     1.3217929    -1.2784977
N           1.3514435    -0.5333041     0.3932483
H           0.8674364     0.1421639     0.9721580
C           2.7288841    -0.7755635     0.8276352
C           3.2882525    -2.1247341     0.3502036
H           4.2358507    -2.3436344     0.8589595
H           3.4375468    -2.1298139    -0.7287645
H           2.5849593    -2.9216442     0.6096882
H           2.6651878    -0.8298837     1.9243552
O           1.6846182    -0.9559711    -1.8387205
C           4.2957392     2.3741906    -0.0658526
H           4.2220616     3.4111746    -0.3643242
N           3.1691920     1.6040506     0.1290655
C           3.6075543     0.4101294     0.4762379
N           4.9758611     0.3835172     0.5174625
H           5.5529125    -0.4219345     0.7092394
C           5.4297605     1.6408925     0.1654189
H           6.4819466     1.8767933     0.1112841
22
232_C7H11N3O_5-7-17-16 (30,) energy =    -512.8570789
C           1.0733507    -0.4521103    -0.9496483
C          -0.2644848     0.1972836    -1.2705792
H          -1.0212169     0.0067316    -0.5022202
H          -0.6170591    -0.1756907    -2.2337454
H          -0.1217954     1.2818705    -1.3507257
N           1.3638806    -0.5274505     0.3974689
H           0.8303082     0.1057706     0.9796960
C           2.7317965    -0.7535069     0.8751137
C           3.2965308    -2.1165360     0.4509711
H           4.2283511    -2.3264606     0.9913444
H           3.4718585    -2.1526120    -0.6244297
H           2.5813873    -2.9018392     0.7121021
H           2.6388647    -0.7725218     1.9702145
O           1.8198394    -0.8781121    -1.8194853
C           4.3260970     2.4073496     0.0972700
H           4.2687148     3.4762567    -0.0583748
N           3.2035603     1.6665275     0.3954102
C           3.6198746     0.4205138     0.5136688
N           4.9695200     0.3318994     0.3080242
H           5.5150066    -0.5167756     0.2852653
C           5.4347107     1.6035596     0.0333648
H           6.4751915     1.8012247    -0.1759617
22
232_C7H11N3O_5-7-17-16 (45,) energy =    -512.8578609
C           1.1179473    -0.4534712    -0.9640716
C          -0.2322803     0.1399921    -1.3383505
H          -0.9960151    -0.0217157    -0.5706615
H          -0.5621504    -0.3003379    -2.2812937
H          -0.1173222     1.2203564    -1.4882744
N           1.3592788    -0.5294112     0.3895932
H           0.7776037     0.0626323     0.9683240
C           2.7130921    -0.7473879     0.9192178
C           3.2783212    -2.1234482     0.5449901
H           4.2101909    -2.3116771     1.0921437
H           3.4535101    -2.1975700    -0.5293916
H           2.5623697    -2.8999849     0.8286354
H           2.5830541    -0.7338669     2.0089835
O           1.9196672    -0.8360079    -1.8061438
C           4.3835256     2.3980438     0.2681850
H           4.3802656     3.4798101     0.2626865
N           3.2833008     1.6816506     0.6825052
C           3.6217724     0.4114083     0.5660264
N           4.9004632     0.2842279     0.0991394
H           5.3591907    -0.5806750    -0.1456766
C           5.3999225     1.5551529    -0.1035705
H           6.3977847     1.7270239    -0.4778741
22
232_C7H11N3O_5-7-17-16 (60,) energy =    -512.8589373
C           1.1672423    -0.4640275    -0.9728791
C          -0.1797031     0.0925629    -1.4107671
H          -0.9730960    -0.0858350    -0.6776914
H          -0.4548865    -0.3614909    -2.3647419
H          -0.0886805     1.1747499    -1.5640230
N           1.3487672    -0.5408240     0.3871816
H           0.7163704     0.0077395     0.9549015
C           2.6800261    -0.7615638     0.9797721
C           3.2394813    -2.1516030     0.6545477
H           4.1772415    -2.3178755     1.1969547
H           3.4060100    -2.2696033    -0.4178391
H           2.5232595    -2.9161273     0.9691064
H           2.5042408    -0.7178428     2.0606099
O           2.0214024    -0.8169149    -1.7777149
C           4.4374470     2.3582080     0.4738266
H           4.5155696     3.4272455     0.6203043
N           3.3970740     1.6355978     1.0117546
C           3.6164223     0.3816159     0.6597718
N           4.7566011     0.2721505    -0.0855313
H           5.0699638    -0.5606005    -0.5621013
C           5.2914938     1.5363701    -0.2184454
H           6.2041917     1.7191367    -0.7651933
22
232_C7H11N3O_5-7-17-16 (75,) energy =    -512.8612057
C           1.3322080    -0.4718066    -1.0029887
C          -0.0226386    -0.0075554    -1.5166475
H          -0.8054907    -0.0150709    -0.7518563
H          -0.3224747    -0.6517008    -2.3468790
H           0.0756590     1.0116528    -1.9075083
N           1.4676760    -0.5002350     0.3586140
H           0.7706625    -0.0153834     0.9066711
C           2.7741771    -0.7106251     1.0133810
C           3.3445259    -2.1089645     0.7460068
H           4.2774023    -2.2434704     1.3038267
H           3.5311343    -2.2712485    -0.3168757
H           2.6293708    -2.8669107     1.0801557
H           2.5545571    -0.6363408     2.0833917
O           2.2360860    -0.7982150    -1.7687442
C           4.5649559     2.4023646     0.6400036
H           4.7297601     3.4339902     0.9211301
N           3.6338897     1.6233197     1.2883434
C           3.7185159     0.4302081     0.7259683
N           4.6535837     0.4193662    -0.2716793
H           4.7475300    -0.3140742    -0.9600388
C           5.2004217     1.6822127    -0.3415820
H           5.9763218     1.9338993    -1.0488744
22
232_C7H11N3O_5-7-17-16 (90,) energy =    -512.8643392
C           1.2114624    -0.5408613    -0.9786847
C          -0.1349889    -0.1056309    -1.5360754
H          -0.9192163    -0.0212611    -0.7775838
H          -0.4477610    -0.8265525    -2.2962921
H          -0.0168317     0.8636410    -2.0323959
N           1.3096761    -0.5675126     0.3814447
H           0.5723434    -0.1335146     0.9184163
C           2.5791636    -0.8352055     1.0910816
C           3.1031424    -2.2535530     0.8273135
H           3.9938842    -2.4353390     1.4374366
H           3.3551993    -2.4022784    -0.2238472
H           2.3383068    -2.9876396     1.1005901
H           2.3223923    -0.7590694     2.1518314
O           2.1419322    -0.8514560    -1.7240191
C           4.6179469     2.1413189     0.9706639
H           4.9341552     3.0875076     1.3891904
N           3.7069995     1.3392825     1.6214232
C           3.5828373     0.2642849     0.8625138
N           4.3620800     0.3513348    -0.2587843
H           4.2273373    -0.2380832    -1.0717084
C           5.0231348     1.5588840    -0.2055017
H           5.7109945     1.8714351    -0.9769062
22
232_C7H11N3O_5-7-17-16 (105,) energy =    -512.8667301
C           1.1830741    -0.5468110    -1.0101976
C          -0.1835757    -0.1997842    -1.5796827
H          -0.9648201    -0.0909693    -0.8213119
H          -0.4765324    -0.9830360    -2.2845612
H          -0.1045349     0.7349685    -2.1444528
N           1.2797410    -0.5398274     0.3465483
H           0.4921188    -0.1981974     0.8779190
C           2.5307291    -0.8037192     1.0926393
C           3.0440460    -2.2326979     0.8564287
H           3.9243859    -2.4134887     1.4814568
H           3.3145248    -2.3906817    -0.1891697
H           2.2696514    -2.9586812     1.1258839
H           2.2567535    -0.7040760     2.1463734
O           2.1306336    -0.8158860    -1.7534659
C           4.8062637     2.0003699     1.1054358
H           5.2600683     2.8470645     1.6029443
N           3.8839013     1.2035381     1.7470058
C           3.5639492     0.2681992     0.8697857
N           4.2364892     0.4333445    -0.3089939
H           3.9833910    -0.0641991    -1.1572924
C           5.0278542     1.5519327    -0.1743786
H           5.6616325     1.9068073    -0.9733846
22
232_C7H11N3O_5-7-17-16 (120,) energy =    -512.8677132
C           1.2091033    -0.3229151    -1.1532144
C          -0.1545411    -0.0431833    -1.7655308
H          -0.4423959    -0.9010280    -2.3809233
H          -0.0709119     0.8214069    -2.4311601
H          -0.9425465     0.1471318    -1.0306592
N           1.2690530    -0.2851766     0.2032744
H           0.4372564    -0.0087042     0.7040005
C           2.4753632    -0.5676156     1.0144398
C           2.9512419    -2.0184364     0.8242539
H           3.7985426    -2.2152407     1.4884987
H           3.2626695    -2.1965782    -0.2071255
H           2.1439205    -2.7168255     1.0704066
H           2.1602647    -0.4378221     2.0528368
O           2.1837037    -0.5700459    -1.8699712
C           5.0594015     1.9467648     1.1879066
H           5.6490540     2.6567509     1.7523297
N           4.0718036     1.1987904     1.7891859
C           3.5693513     0.4490375     0.8231512
N           4.1959519     0.6773496    -0.3686263
H           3.8825254     0.2616865    -1.2422030
C           5.1475757     1.6471088    -0.1506335
H           5.7779157     2.0218226    -0.9432595
22
232_C7H11N3O_5-7-17-16 (135,) energy =    -512.8671556
C           1.4761583    -0.3963248    -1.4379571
C           0.1183853    -0.2565567    -2.1091143
H          -0.1129277    -1.1930382    -2.6268305
H           0.1814155     0.5281917    -2.8684297
H          -0.6983864    -0.0231032    -1.4194593
N           1.4772441    -0.3027837    -0.0832785
H           0.5931170    -0.1170668     0.3672684
C           2.6363745    -0.5208851     0.8121298
C           3.1464102    -1.9708481     0.7111641
H           3.9631010    -2.1205997     1.4237281
H           3.5141083    -2.1809486    -0.2960387
H           2.3408936    -2.6757190     0.9456393
H           2.2575568    -0.3546111     1.8235364
O           2.4939411    -0.5864090    -2.1110141
C           5.3718165     1.8114658     1.0871452
H           6.0413453     2.4102582     1.6901233
N           4.3599256     1.0736160     1.6589319
C           3.7421085     0.4894522     0.6459601
N           4.3249986     0.8044898    -0.5470421
H           3.9975191     0.4327982    -1.4362131
C           5.3676791     1.6613414    -0.2790379
H           5.9837230     2.0780113    -1.0618694
22
232_C7H11N3O_5-7-17-16 (150,) energy =    -512.8650981
C           1.4717190    -0.3948466    -1.4562565
C           0.1093022    -0.3462333    -2.1317472
H          -0.0623179    -1.3021827    -2.6370606
H           0.1272293     0.4299005    -2.9021604
H          -0.7231073    -0.1536206    -1.4482636
N           1.4615429    -0.2798102    -0.1024715
H           0.5585726    -0.1647998     0.3342696
C           2.5989302    -0.4698291     0.8256036
C           3.1134785    -1.9221351     0.7697439
H           3.9133432    -2.0517169     1.5042597
H           3.5065999    -2.1490036    -0.2246501
H           2.3038576    -2.6244127     0.9987393
H           2.1927828    -0.2855781     1.8235309
O           2.5001097    -0.5274435    -2.1259543
C           5.5009105     1.6447014     1.0936502
H           6.2736837     2.1053522     1.6945720
N           4.4977570     0.8978596     1.6687410
C           3.7258799     0.5209666     0.6631782
N           4.2036612     0.9708373    -0.5328339
H           3.8271335     0.6631233    -1.4273590
C           5.3431631     1.6976368    -0.2701248
H           5.9065007     2.1827825    -1.0531737
22
232_C7H11N3O_5-7-17-16 (165,) energy =    -512.8618553
C           1.4985246    -0.3699776    -1.4785843
C           0.1413746    -0.4236002    -2.1656483
H           0.0063795    -1.4231565    -2.5927071
H           0.1403634     0.2880996    -2.9954684
H          -0.7036121    -0.2073948    -1.5048223
N           1.4632664    -0.2499978    -0.1234985
H           0.5443106    -0.2217022     0.2942170
C           2.5733802    -0.4151707     0.8395924
C           3.0750508    -1.8732512     0.8477528
H           3.8597649    -1.9811061     1.6009977
H           3.4872281    -2.1348301    -0.1309080
H           2.2544517    -2.5607414     1.0830937
H           2.1349847    -0.1981078     1.8182524
O           2.5403087    -0.4259853    -2.1354432
C           5.6042944     1.5173161     1.0530277
H           6.4673984     1.8421288     1.6187587
N           4.6411940     0.7124905     1.6190064
C           3.7303837     0.5451304     0.6758197
N           4.0758524     1.1866287    -0.4773987
H           3.6464463     0.9722022    -1.3740527
C           5.2840067     1.8107716    -0.2491691
H           5.7769738     2.3973107    -1.0098631
22
232_C7H11N3O_5-7-17-16 (180,) energy =    -512.8583923
C           1.5474201    -0.2039656    -1.5230438
C           0.1959257    -0.3410381    -2.2124254
H           0.0061244    -1.4012751    -2.4168044
H           0.2380590     0.1793885    -3.1715310
H          -0.6384823     0.0512219    -1.6221190
N           1.4934498    -0.0834172    -0.1635665
H           0.5721399    -0.1397113     0.2472721
C           2.5972025    -0.2430248     0.8038135
C           3.0638248    -1.7087834     0.8784159
H           3.8595123    -1.7989676     1.6216701
H           3.4547863    -2.0257592    -0.0927717
H           2.2300931    -2.3626213     1.1588729
H           2.1553161     0.0247980     1.7707128
O           2.5968102    -0.1958760    -2.1631030
C           5.7115752     1.5770099     0.8608999
H           6.6673658     1.7760502     1.3269086
N           4.8399946     0.6474896     1.3855302
C           3.7811790     0.6776351     0.5976191
N           3.9315551     1.5828519    -0.4128911
H           3.3983455     1.5405847    -1.2728632
C           5.1812913     2.1524487    -0.2648190
H           5.5541363     2.8964805    -0.9525167
