22
232_C7H11N3O_0-5-7-17 (-165,) energy =    -512.8651523
C           0.7538079    -0.8575566    -0.7320728
C          -0.2919349    -0.2088329    -1.6277084
H          -1.2070623    -0.0563498    -1.0472803
H          -0.5347323    -0.8976756    -2.4429918
H           0.0256101     0.7479988    -2.0531567
N           1.9266914    -0.1765437    -0.6117506
H           2.0683426     0.7306627    -1.0403434
C           3.0128835    -0.6555209     0.2292935
C           3.7115070    -1.8908770    -0.3750285
H           4.5119026    -2.2509353     0.2831312
H           4.1481902    -1.6437131    -1.3479899
H           2.9784924    -2.6910746    -0.4978647
H           2.5867338    -0.9502767     1.1987204
O           0.5479534    -1.9243322    -0.1586283
C           4.9792053     2.3873028     0.2202636
H           5.1710495     3.3832170    -0.1544039
N           3.9138215     1.6406446    -0.2379113
C           3.9669117     0.4967066     0.4155228
N           5.0270710     0.4750436     1.2773406
H           5.2812824    -0.2832422     1.8938780
C           5.6853517     1.6861088     1.1613141
H           6.5627337     1.9201292     1.7448738
22
232_C7H11N3O_0-5-7-17 (-150,) energy =    -512.8651883
C           0.7340849    -0.8361751    -0.6534564
C          -0.3246387    -0.1847367    -1.5307665
H          -1.1503681     0.1513011    -0.8957325
H          -0.7267489    -0.9368167    -2.2166111
H           0.0481158     0.6640081    -2.1121506
N           1.9781335    -0.2802179    -0.7233259
H           2.1311601     0.6089818    -1.1854572
C           3.0462219    -0.7159790     0.1640985
C           3.7926242    -1.9403485    -0.4009712
H           4.5772057    -2.2787053     0.2870770
H           4.2556107    -1.6978475    -1.3627724
H           3.0808475    -2.7583555    -0.5394731
H           2.5813453    -1.0156152     1.1131625
O           0.4864030    -1.8076710     0.0553433
C           4.9358644     2.3736866     0.2137829
H           5.1271342     3.3663715    -0.1697294
N           3.9189278     1.5919949    -0.2932147
C           3.9572860     0.4636802     0.3880385
N           4.9628576     0.4851587     1.3132882
H           5.1926663    -0.2518682     1.9642757
C           5.5984939     1.7095386     1.2117925
H           6.4303815     1.9781302     1.8450136
22
232_C7H11N3O_0-5-7-17 (-135,) energy =    -512.8645565
C           0.4267355    -0.5938891    -1.1029343
C           0.2114085    -1.2211310    -2.4720534
H           1.0603626    -1.8179817    -2.8188939
H           0.0160519    -0.4251502    -3.1983057
H          -0.6800316    -1.8538420    -2.4339416
N           1.6710981    -0.7762464    -0.5647433
H           2.4336404    -1.1037789    -1.1470114
C           2.0796893    -0.0686090     0.6410672
C           1.9906427    -0.9718183     1.8866062
H           2.2854905    -0.4270550     2.7917299
H           2.6473633    -1.8410423     1.7783048
H           0.9603713    -1.3176430     2.0113949
H           1.3752723     0.7623543     0.7691492
O          -0.4631367     0.0164658    -0.5193314
C           5.4763473     0.7393698    -0.3181011
H           6.3416632     0.5744149    -0.9452356
N           4.3162283     0.0139206    -0.4900062
C           3.4725890     0.4634443     0.4184027
N           4.0455613     1.4474751     1.1742904
H           3.6023138     1.9614404     1.9222007
C           5.3344860     1.6352732     0.7086973
H           5.9977641     2.3712590     1.1371262
22
232_C7H11N3O_0-5-7-17 (-120,) energy =    -512.8640978
C           0.7547981    -0.2533522    -0.9334507
C           0.2324337    -0.8647188    -2.2251154
H           0.9328284    -1.5583505    -2.7008703
H          -0.0062555    -0.0588588    -2.9248536
H          -0.6999909    -1.3974403    -2.0107025
N           1.9375530    -0.7652059    -0.4771508
H           2.4035216    -1.4949448    -0.9990049
C           2.5385793    -0.3573282     0.7979874
C           2.5967907    -1.5272001     1.7859975
H           2.9772149    -1.1889775     2.7549265
H           3.2716213    -2.3082792     1.4230902
H           1.5964770    -1.9481691     1.9252595
H           1.8632256     0.4147310     1.1786001
O           0.1486011     0.6397324    -0.3492255
C           6.0069847     0.5406019     0.2622630
H           7.0580681     0.2872443     0.2301978
N           5.0563519    -0.3925185     0.6145112
C           3.9001942     0.2411317     0.5625129
N           4.0714108     1.5470918     0.1870385
H           3.3335428     2.2262520     0.0611587
C           5.4211930     1.7514949    -0.0097184
H           5.8216851     2.7100159    -0.3037657
22
232_C7H11N3O_0-5-7-17 (-105,) energy =    -512.8656925
C           0.9055050    -0.0975215    -0.9675386
C           0.2213474    -0.7325328    -2.1675906
H           0.7128139    -1.6429063    -2.5246566
H           0.1824851    -0.0023302    -2.9807924
H          -0.8117938    -0.9733838    -1.8958744
N           1.9439453    -0.8012672    -0.4308805
H           2.2092909    -1.6899082    -0.8331624
C           2.5624464    -0.4223640     0.8483394
C           2.6764232    -1.6346573     1.7743691
H           3.0872875    -1.3333848     2.7417760
H           3.3551318    -2.3848637     1.3560150
H           1.6906957    -2.0838442     1.9304584
H           1.8797998     0.3168216     1.2782493
O           0.5539124     0.9939675    -0.5224285
C           5.9850558     0.6992917     0.4319768
H           7.0533179     0.5583391     0.5263827
N           5.0953053    -0.2610249     0.8657030
C           3.8989024     0.2300344     0.6106206
N           3.9809058     1.4675438     0.0307321
H           3.1864407     2.0213076    -0.2636277
C           5.3181837     1.7788340    -0.0922111
H           5.6564761     2.7101910    -0.5209151
22
232_C7H11N3O_0-5-7-17 (-90,) energy =    -512.8685457
C           1.0849169    -0.0772231    -1.0331723
C           0.2937916    -0.6829522    -2.1798387
H           0.5657939    -1.7190600    -2.4033941
H           0.4411704    -0.0718969    -3.0750061
H          -0.7714546    -0.6432267    -1.9298545
N           1.9601833    -0.9023574    -0.3988142
H           2.0517257    -1.8631016    -0.6987543
C           2.6133042    -0.5096489     0.8633535
C           2.8111690    -1.7353385     1.7543959
H           3.2537522    -1.4374237     2.7079490
H           3.4994261    -2.4491520     1.2904104
H           1.8511651    -2.2257115     1.9460501
H           1.9247880     0.1953719     1.3412883
O           0.9543318     1.1061696    -0.7098083
C           5.9627457     0.7924882     0.3937680
H           7.0373946     0.7261158     0.4978116
N           5.1349529    -0.2017739     0.8714324
C           3.9122036     0.2007057     0.5858903
N           3.9151630     1.4114072    -0.0500756
H           3.0739865     1.8728835    -0.3815826
C           5.2294196     1.8000013    -0.1847839
H           5.5109463     2.7285227    -0.6584461
22
232_C7H11N3O_0-5-7-17 (-75,) energy =    -512.8700400
C           1.1190491    -0.0547459    -1.0546278
C           0.3648818    -0.6323627    -2.2403892
H           0.4996511    -1.7108977    -2.3664845
H           0.6913587    -0.1213531    -3.1511991
H          -0.7013919    -0.4210430    -2.1126887
N           1.8274973    -0.9387084    -0.3054815
H           1.9257479    -1.8925140    -0.6251441
C           2.5759374    -0.5409801     0.9023559
C           2.8408728    -1.7732097     1.7655336
H           3.3442226    -1.4814401     2.6898946
H           3.5015952    -2.4771533     1.2493068
H           1.8985271    -2.2720661     2.0143346
H           1.9151323     0.1497292     1.4393859
O           1.0730878     1.1502818    -0.7897635
C           5.8937273     0.7887985     0.3102544
H           6.9713817     0.7253740     0.3800348
N           5.0843824    -0.2112254     0.8034636
C           3.8502421     0.1904185     0.5603527
N           3.8309315     1.4071217    -0.0618202
H           2.9739151     1.8515141    -0.3800628
C           5.1384938     1.7990237    -0.2354615
H           5.4017173     2.7321686    -0.7107106
22
232_C7H11N3O_0-5-7-17 (-60,) energy =    -512.8688638
C           1.0502710     0.0878743    -1.1747137
C           0.3778213    -0.5160804    -2.3969254
H           0.1989951    -1.5922454    -2.3119875
H           1.0052274    -0.3316474    -3.2761926
H          -0.5738051    -0.0038788    -2.5596614
N           1.5806566    -0.8010209    -0.2910451
H           1.6550026    -1.7647109    -0.5911313
C           2.4224217    -0.4198195     0.8655669
C           2.7163812    -1.6706120     1.6920923
H           3.2694611    -1.4022258     2.5942595
H           3.3409224    -2.3717726     1.1292319
H           1.7807560    -2.1620345     1.9785269
H           1.8050362     0.2655078     1.4607445
O           1.0792244     1.3087687    -1.0008455
C           5.7430695     0.8736285     0.2236389
H           6.8200033     0.7876430     0.2795438
N           4.9205161    -0.1217666     0.7000388
C           3.6892988     0.3092266     0.4840649
N           3.6884747     1.5442498    -0.1002258
H           2.8381496     1.9921543    -0.4323077
C           5.0005491     1.9127532    -0.2842762
H           5.2750079     2.8516139    -0.7417193
22
232_C7H11N3O_0-5-7-17 (-45,) energy =    -512.8654992
C           1.0780290     0.1036729    -1.2228959
C           0.3669943    -0.5698658    -2.3870713
H           0.0632032    -1.6008563    -2.1814840
H           1.0332975    -0.5678110    -3.2571056
H          -0.5145746     0.0213315    -2.6465576
N           1.4840135    -0.7302695    -0.2246043
H           1.4147458    -1.7191309    -0.4288814
C           2.4271123    -0.4065964     0.8773564
C           2.7617870    -1.7056013     1.6100705
H           3.3768937    -1.4939288     2.4860231
H           3.3369749    -2.3783156     0.9660667
H           1.8408411    -2.2036583     1.9325489
H           1.8693466     0.2444893     1.5658230
O           1.2206733     1.3276874    -1.1974354
C           5.7378802     0.9106353     0.2557685
H           6.8140232     0.8267876     0.3279665
N           4.9109139    -0.0928785     0.7038276
C           3.6804470     0.3360832     0.4714694
N           3.6860273     1.5808505    -0.0894512
H           2.8438401     2.0106685    -0.4655580
C           4.9993720     1.9538533    -0.2494603
H           5.2769757     2.8976179    -0.6948275
22
232_C7H11N3O_0-5-7-17 (-30,) energy =    -512.8614836
C           1.0890717     0.1334172    -1.3372642
C           0.2374045    -0.5992261    -2.3658899
H          -0.2304525    -1.5125972    -1.9855036
H           0.8677081    -0.8618527    -3.2231113
H          -0.5382859     0.0819884    -2.7230249
N           1.4170684    -0.6027326    -0.2389020
H           1.1196287    -1.5682024    -0.2838090
C           2.4277092    -0.3695177     0.8305022
C           2.7881901    -1.7316655     1.4287985
H           3.4700267    -1.5993406     2.2691638
H           3.2958534    -2.3578719     0.6884789
H           1.8834093    -2.2417973     1.7801081
H           1.9148711     0.2140261     1.6113180
O           1.3948697     1.3131462    -1.5207606
C           5.7232797     1.0506502     0.4356086
H           6.7868893     1.0178646     0.6305777
N           4.8885949     0.0413237     0.8535099
C           3.6766837     0.3994046     0.4558006
N           3.6995669     1.6064403    -0.1785590
H           2.8891703     1.9686910    -0.6809803
C           5.0079735     2.0255402    -0.2170919
H           5.2992806     2.9473885    -0.6982003
22
232_C7H11N3O_0-5-7-17 (-15,) energy =    -512.8586842
C           1.1744002     0.1339156    -1.3701950
C           0.0705358    -0.5162156    -2.1968550
H          -0.4082732    -1.3765732    -1.7195773
H           0.4984517    -0.8368173    -3.1520926
H          -0.6885612     0.2394437    -2.4173995
N           1.4497759    -0.5025659    -0.1991765
H           0.8855119    -1.3267627    -0.0446933
C           2.4887796    -0.3730736     0.8587157
C           2.8698219    -1.7901960     1.3081271
H           3.5961279    -1.7302703     2.1192083
H           3.3254976    -2.3446074     0.4818014
H           1.9838839    -2.3337367     1.6601871
H           1.9881229     0.1194763     1.7080704
O           1.7044304     1.1658628    -1.7878776
C           5.7250550     1.2048748     0.8200985
H           6.7358416     1.2649269     1.2010772
N           4.8678763     0.2102170     1.2252243
C           3.7376892     0.4325186     0.5683052
N           3.8308338     1.5376323    -0.2205683
H           3.1019731     1.7873754    -0.8938678
C           5.1058059     2.0333357    -0.0843128
H           5.4448330     2.8966856    -0.6372289
22
232_C7H11N3O_0-5-7-17 (0,) energy =    -512.8575199
C           1.3410854    -0.0622106    -1.4232360
C           0.0596031    -0.5454383    -2.0938556
H          -0.5413176    -1.2315733    -1.4894824
H           0.3271664    -1.0414112    -3.0319456
H          -0.5466915     0.3283875    -2.3495403
N           1.5607139    -0.5918968    -0.1892602
H           0.8391468    -1.2367476     0.1031066
C           2.6202486    -0.5233522     0.8500713
C           3.0368619    -1.9629781     1.2014022
H           3.7641623    -1.9346415     2.0147884
H           3.4962193    -2.4493358     0.3349466
H           2.1689120    -2.5546714     1.5200270
H           2.1236248    -0.1003726     1.7355660
O           2.0556616     0.7449206    -2.0220820
C           5.7521215     1.2267461     1.0586905
H           6.6655673     1.4280920     1.6024419
N           4.8295907     0.3214826     1.5244213
C           3.8552683     0.3237738     0.6247751
N           4.1108558     1.1941384    -0.3860083
H           3.4871738     1.2978228    -1.1920611
C           5.3291613     1.7776865    -0.1270112
H           5.7677489     2.5034778    -0.7952821
22
232_C7H11N3O_0-5-7-17 (15,) energy =    -512.8588499
C           1.3673151    -0.2278655    -1.4037339
C          -0.0439768    -0.3604100    -1.9640026
H          -0.7094686    -0.9898340    -1.3651541
H           0.0211089    -0.7666840    -2.9764468
H          -0.4840096     0.6398800    -2.0391832
N           1.5214706    -0.7096151    -0.1396729
H           0.6793834    -1.1018860     0.2583204
C           2.6147641    -0.6435679     0.8619779
C           3.1942746    -2.0612798     1.0585392
H           3.9161965    -2.0515285     1.8799026
H           3.7004002    -2.3960564     0.1472892
H           2.4000170    -2.7793016     1.2973739
H           2.1382715    -0.3392143     1.7991157
O           2.2521376     0.2672406    -2.1039296
C           5.3881734     1.6038188     1.2149569
H           6.0679998     2.1433369     1.8609126
N           4.3470142     0.8671701     1.7288797
C           3.7292849     0.3560877     0.6739330
N           4.3422637     0.7131853    -0.4882187
H           3.9015208     0.5587111    -1.3960058
C           5.3953335     1.5347529    -0.1574732
H           6.0218805     1.9905444    -0.9095434
22
232_C7H11N3O_0-5-7-17 (30,) energy =    -512.8616485
C           1.4081661    -0.3441426    -1.3698802
C          -0.0043820    -0.2532227    -1.9317710
H          -0.7745595    -0.6721052    -1.2768213
H          -0.0303039    -0.7701879    -2.8943424
H          -0.2393895     0.8003526    -2.1182891
N           1.4842851    -0.7186547    -0.0632464
H           0.5927767    -0.8480758     0.3941484
C           2.6303367    -0.7029290     0.8816008
C           3.2586473    -2.1111371     0.9436605
H           4.0421611    -2.1378580     1.7070849
H           3.7020182    -2.3726048    -0.0225208
H           2.5000578    -2.8629976     1.1898356
H           2.1996868    -0.4691371     1.8582760
O           2.3754650    -0.1173675    -2.0990005
C           5.2180454     1.7690560     1.2045169
H           5.8077235     2.4229270     1.8331414
N           4.1881240     1.0182081     1.7211543
C           3.6918989     0.3508435     0.6897318
N           4.3743623     0.6249731    -0.4580666
H           4.0298587     0.3317132    -1.3708247
C           5.3425760     1.5510201    -0.1467205
H           6.0006781     1.9642252    -0.8965390
22
232_C7H11N3O_0-5-7-17 (45,) energy =    -512.8651232
C           1.4435552    -0.4533921    -1.3054870
C           0.0676547    -0.2086196    -1.9073305
H          -0.7603115    -0.4144597    -1.2221405
H          -0.0391199    -0.8329618    -2.7981726
H           0.0055304     0.8364788    -2.2297419
N           1.4626697    -0.6837301     0.0356963
H           0.5835118    -0.5570571     0.5172789
C           2.6534990    -0.7484211     0.9200926
C           3.2808320    -2.1541567     0.8400027
H           4.1224620    -2.2302891     1.5354686
H           3.6443730    -2.3515145    -0.1727617
H           2.5396589    -2.9189256     1.0965624
H           2.2746050    -0.5859511     1.9314144
O           2.4459355    -0.4682410    -2.0236910
C           5.1228862     1.8598410     1.1918844
H           5.6669984     2.5749528     1.7943623
N           4.1264771     1.0795195     1.7312364
C           3.6859843     0.3335801     0.7295375
N           4.3695008     0.5916692    -0.4227815
H           4.0861160     0.2058088    -1.3202432
C           5.2826268     1.5819018    -0.1446863
H           5.9346441     1.9888203    -0.9032056
22
232_C7H11N3O_0-5-7-17 (60,) energy =    -512.8674850
C           1.3859776    -0.3999639    -1.2723493
C           0.0199306    -0.1516673    -1.8933429
H          -0.8009218    -0.1304001    -1.1702213
H          -0.1745159    -0.9356533    -2.6309385
H           0.0453880     0.8020165    -2.4303067
N           1.4131907    -0.4769602     0.0838792
H           0.5584468    -0.2651847     0.5780011
C           2.6236259    -0.6663534     0.9172472
C           3.2070983    -2.0771448     0.7165077
H           4.0616599    -2.2212804     1.3848755
H           3.5395754    -2.2154218    -0.3150367
H           2.4507689    -2.8361932     0.9438826
H           2.2806976    -0.5724561     1.9503379
O           2.3856630    -0.5328572    -1.9844134
C           5.0743984     1.9645989     1.2095854
H           5.6235588     2.6767672     1.8108845
N           4.1132135     1.1499710     1.7648140
C           3.6560050     0.4195756     0.7614432
N           4.2893123     0.7227044    -0.4095960
H           4.0061118     0.3287458    -1.3034865
C           5.1934803     1.7237222    -0.1382915
H           5.8171817     2.1571730    -0.9058650
22
232_C7H11N3O_0-5-7-17 (75,) energy =    -512.8671952
C           1.4228340    -0.4271283    -1.2780654
C           0.0444442    -0.2759789    -1.9018543
H          -0.7329155     0.0212655    -1.1913967
H          -0.2413645    -1.2304270    -2.3567275
H           0.1004563     0.4644033    -2.7044447
N           1.4765168    -0.3368675     0.0771507
H           0.6120782    -0.1799211     0.5745520
C           2.6640570    -0.6654554     0.8995415
C           3.1882040    -2.0852547     0.6263399
H           4.0167783    -2.3008461     1.3080828
H           3.5407790    -2.1862592    -0.4016278
H           2.3951266    -2.8215652     0.7983199
H           2.3153295    -0.6205208     1.9347255
O           2.4213308    -0.6083577    -1.9813183
C           5.1742093     1.8992056     1.3013878
H           5.7479393     2.5729158     1.9236839
N           4.2159859     1.0688379     1.8402916
C           3.7246458     0.3985350     0.8134834
N           4.3283291     0.7556346    -0.3584336
H           4.0414117     0.3875852    -1.2620328
C           5.2557532     1.7277708    -0.0599236
H           5.8659791     2.1931763    -0.8194911
22
232_C7H11N3O_0-5-7-17 (90,) energy =    -512.8637817
C           1.3639848    -0.5921128    -1.3299261
C          -0.0309355    -0.4739366    -1.9232050
H          -0.4992085    -1.4652012    -1.9372241
H           0.0522114    -0.1303261    -2.9564922
H          -0.6818052     0.2061675    -1.3644315
N           1.4904983    -0.2247536    -0.0220472
H           0.6441758     0.0445228     0.4604395
C           2.6108783    -0.6537948     0.8515798
C           3.0302741    -2.1187296     0.6567820
H           3.7856477    -2.3691964     1.4081472
H           3.4438682    -2.2946360    -0.3364707
H           2.1689171    -2.7814643     0.7978295
H           2.2294764    -0.5475741     1.8714797
O           2.3244460    -0.9650154    -2.0069195
C           5.2732779     1.7669927     1.1981967
H           5.8779835     2.4376311     1.7937919
N           4.2620420     1.0205875     1.7660974
C           3.7441662     0.3300774     0.7688592
N           4.3795671     0.5917983    -0.4128920
H           4.0990910     0.1884061    -1.3018215
C           5.3602530     1.5229397    -0.1511670
H           6.0062617     1.9123659    -0.9236828
22
232_C7H11N3O_0-5-7-17 (105,) energy =    -512.8586278
C           1.2694802    -0.7510352    -1.3588870
C          -0.1352577    -0.4782785    -1.8803103
H          -0.7592564    -1.3627615    -1.7059988
H          -0.0849340    -0.3135229    -2.9587400
H          -0.6178265     0.3809876    -1.4032108
N           1.5496753    -0.2230040    -0.1285440
H           0.8046352     0.2885998     0.3238487
C           2.6337837    -0.6619170     0.7811618
C           3.0896188    -2.1160965     0.5936328
H           3.7914170    -2.3573632     1.3983415
H           3.5726525    -2.2796913    -0.3687121
H           2.2337486    -2.7956753     0.6637940
H           2.2133908    -0.5803213     1.7889694
O           2.0943279    -1.3736594    -2.0235285
C           5.2425523     1.7952117     1.2801073
H           5.8035827     2.4709734     1.9114056
N           4.2125817     1.0299748     1.7868527
C           3.7581004     0.3371585     0.7617277
N           4.4511115     0.6210967    -0.3836337
H           4.2544281     0.2222992    -1.2931281
C           5.4062687     1.5625349    -0.0630724
H           6.0868351     1.9657409    -0.7978669
22
232_C7H11N3O_0-5-7-17 (120,) energy =    -512.8557259
C           1.0984089    -0.9806286    -1.2956849
C          -0.1892858    -0.3731929    -1.8467026
H          -1.0396887    -0.9796755    -1.5143090
H          -0.1560119    -0.4193526    -2.9375090
H          -0.3610968     0.6617041    -1.5327917
N           1.5890604    -0.3429420    -0.1863328
H           1.0712630     0.4644571     0.1332758
C           2.6685812    -0.7533388     0.7353755
C           3.1970522    -2.1790621     0.5225232
H           3.9100276    -2.3910549     1.3261784
H           3.6954924    -2.3021956    -0.4393381
H           2.3851126    -2.9083846     0.5674445
H           2.2487396    -0.7048084     1.7469872
O           1.6202947    -1.9530983    -1.8268479
C           5.1604707     1.8081448     1.3097552
H           5.6583632     2.5128781     1.9619046
N           4.1341589     1.0097515     1.7678252
C           3.7626245     0.2827624     0.7319166
N           4.5074394     0.5838229    -0.3773797
H           4.3967759     0.1732342    -1.2940063
C           5.4083455     1.5648651    -0.0177764
H           6.1136158     1.9829311    -0.7203523
22
232_C7H11N3O_0-5-7-17 (135,) energy =    -512.8566170
C           0.9743465    -0.9614891    -1.0173898
C           0.0069660    -0.1089675    -1.8342186
H          -0.9837884    -0.5695355    -1.7919191
H           0.3289508    -0.1209434    -2.8812203
H          -0.0636648     0.9307679    -1.5007982
N           1.7221297    -0.2482780    -0.1179997
H           1.6788208     0.7630519    -0.1934272
C           2.9207889    -0.6784273     0.6100963
C           3.5406623    -2.0021885     0.1342937
H           4.4042629    -2.2450922     0.7667196
H           3.8745389    -1.9337900    -0.9048701
H           2.8197300    -2.8142491     0.2026832
H           2.6500120    -0.8045053     1.6713079
O           1.0205692    -2.1771353    -1.1656512
C           4.7605427     2.4316125     0.2766033
H           4.7835480     3.4892025     0.0526766
N           3.5943633     1.7033599     0.1847880
C           3.9117807     0.4654926     0.5114645
N           5.2393071     0.3698353     0.8208952
H           5.7346660    -0.4709080     1.0784255
C           5.7966597     1.6260193     0.6693351
H           6.8456514     1.8122696     0.8430888
22
232_C7H11N3O_0-5-7-17 (150,) energy =    -512.8591206
C           0.8819343    -0.9734494    -0.8827847
C          -0.0608605    -0.1686705    -1.7718142
H          -1.0827762    -0.5196471    -1.6052086
H           0.1876352    -0.3692947    -2.8198374
H          -0.0173877     0.9114282    -1.6020425
N           1.7667818    -0.2134495    -0.1676623
H           1.8197295     0.7761739    -0.3891925
C           2.9596555    -0.6887874     0.5351911
C           3.5926193    -1.9598331    -0.0651586
H           4.4749254    -2.2473701     0.5198679
H           3.9079407    -1.7796062    -1.0979195
H           2.8771554    -2.7803750    -0.0580691
H           2.6963343    -0.9050277     1.5829629
O           0.8024900    -2.1954870    -0.8170063
C           4.8605476     2.3869732     0.2114071
H           4.9386413     3.4150973    -0.1138271
N           3.7122273     1.6527037     0.0028634
C           3.9483860     0.4572490     0.5059322
N           5.2044989     0.3939000     1.0402137
H           5.6300829    -0.4112944     1.4757943
C           5.8013496     1.6275288     0.8545026
H           6.8089956     1.8318624     1.1832790
22
232_C7H11N3O_0-5-7-17 (165,) energy =    -512.8618758
C           0.8429510    -0.9424471    -0.8086814
C          -0.1247905    -0.2173278    -1.7364508
H          -1.1467046    -0.4173640    -1.4020985
H          -0.0241798    -0.6330011    -2.7447591
H           0.0331362     0.8644386    -1.7831485
N           1.8310649    -0.1584113    -0.2864365
H           1.9424052     0.7912545    -0.6268338
C           2.9949701    -0.6581019     0.4408101
C           3.6469763    -1.8972347    -0.2091316
H           4.5096940    -2.2259949     0.3829769
H           3.9954791    -1.6551997    -1.2186506
H           2.9239332    -2.7107093    -0.2652758
H           2.6899350    -0.9287866     1.4631146
O           0.7061356    -2.1332341    -0.5444313
C           4.9567049     2.3837000     0.2047279
H           5.0920306     3.3900560    -0.1665292
N           3.8305160     1.6499062    -0.1043585
C           3.9804411     0.4859866     0.4958779
N           5.1594256     0.4406873     1.1849216
H           5.5076013    -0.3379815     1.7252854
C           5.7967714     1.6549034     1.0037686
H           6.7565509     1.8704427     1.4481583
22
232_C7H11N3O_0-5-7-17 (180,) energy =    -512.8640407
C           0.7907955    -0.9259508    -0.7538858
C          -0.2237412    -0.2595052    -1.6737285
H          -1.2076260    -0.2969616    -1.1968236
H          -0.2898287    -0.8357460    -2.6023884
H           0.0171146     0.7797246    -1.9174790
N           1.8736726    -0.1633110    -0.4353281
H           2.0041829     0.7567929    -0.8406265
C           3.0018437    -0.6609148     0.3401912
C           3.6759918    -1.8896542    -0.3065287
H           4.5093329    -2.2434468     0.3127100
H           4.0677659    -1.6293061    -1.2952917
H           2.9460449    -2.6944519    -0.4051030
H           2.6401965    -0.9551097     1.3363349
O           0.6240365    -2.0643035    -0.3237749
C           4.9825255     2.3714568     0.2154994
H           5.1567194     3.3669360    -0.1687465
N           3.8866308     1.6317402    -0.1775485
C           3.9742099     0.4855981     0.4677207
N           5.0838810     0.4566423     1.2643268
H           5.3723608    -0.3051943     1.8610616
C           5.7408632     1.6641981     1.1101645
H           6.6545241     1.8913641     1.6381045
