26
356_C11H14O_0-6-18-16 (-165,) energy =    -502.8094294
C           0.7931392    -0.5629085     0.1687296
H           1.2830997    -1.1215978     0.9663750
H           0.1778256     0.2238781     0.6174924
C          -0.0098582    -1.5288301    -0.7203066
H          -0.8048236    -0.9933479    -1.2513399
H          -0.4804136    -2.3352698    -0.1497863
C           1.8184129    -0.0294822    -0.8400146
H           1.2648971     0.6264887    -1.5370631
O           2.2157789    -1.2166655    -1.5538931
C           1.0593671    -2.0460208    -1.7150998
H           1.3636388    -3.0789343    -1.5106520
H           0.7006904    -1.9971759    -2.7533442
C           5.4762405     2.1940778    -0.1581495
H           6.3954193     2.7579990    -0.0225987
C           4.8648320     2.1214607    -1.4078967
H           5.2972653     2.6231684    -2.2693338
C           3.6831280     1.3993708    -1.5392551
H           3.2015967     1.3399474    -2.5123167
C           3.0827267     0.7317637    -0.4587869
C           3.7108541     0.7913938     0.8050201
C           3.2024068     0.1037637     2.0557544
H           3.8526018     0.3403725     2.9037238
H           3.1933806    -0.9869923     1.9486848
H           2.1883035     0.4167305     2.3250527
C           4.8963160     1.5357155     0.9226202
H           5.3762053     1.5913163     1.8970316
26
356_C11H14O_0-6-18-16 (-150,) energy =    -502.8112707
C           0.6792334    -0.3276500     0.0440034
H           1.0483759    -0.6728693     1.0078407
H           0.0198892     0.5299616     0.2162525
C          -0.0179984    -1.4791059    -0.7015565
H          -0.7479602    -1.0873002    -1.4186564
H          -0.5511367    -2.1563911    -0.0274491
C           1.8311620    -0.0007180    -0.9198564
H           1.3904293     0.5133864    -1.7916414
O           2.2876865    -1.3065513    -1.3314852
C           1.1530163    -2.1727883    -1.4395808
H           1.4270119    -3.1342502    -0.9899811
H           0.9136190    -2.3502674    -2.4979191
C           5.4346045     2.2693079    -0.1118031
H           6.3444380     2.8377804     0.0625074
C           4.8117842     2.2889297    -1.3566445
H           5.2287960     2.8650059    -2.1781901
C           3.6436988     1.5526989    -1.5391754
H           3.1560372     1.5658116    -2.5112450
C           3.0564583     0.8032076    -0.5081653
C           3.7234771     0.7351932     0.7371606
C           3.2840029    -0.1401081     1.8921282
H           4.0728875    -0.1865104     2.6494610
H           3.0812934    -1.1636028     1.5614536
H           2.3823193     0.2380899     2.3886398
C           4.8915792     1.4922726     0.9094367
H           5.3972250     1.4514304     1.8716213
26
356_C11H14O_0-6-18-16 (-135,) energy =    -502.8147924
C           0.6540175    -0.1664367    -0.0917496
H           0.9467263    -0.3232497     0.9466235
H           0.0148311     0.7219001    -0.1323323
C          -0.0283577    -1.4207454    -0.6639107
H          -0.7060236    -1.1486628    -1.4808037
H          -0.6168474    -1.9612743     0.0836639
C           1.8853550    -0.0382618    -1.0053301
H           1.5435454     0.3552863    -1.9774571
O           2.3140137    -1.4040151    -1.1795708
C           1.1612965    -2.2536137    -1.1995081
H           1.3822458    -3.1258761    -0.5733281
H           0.9762817    -2.6104685    -2.2225919
C           5.3735764     2.3420235    -0.0384150
H           6.2533958     2.9395096     0.1859162
C           4.7510489     2.4347248    -1.2801454
H           5.1389395     3.0985310    -2.0480339
C           3.6261295     1.6520429    -1.5339390
H           3.1426514     1.7172633    -2.5060936
C           3.0799265     0.7930589    -0.5697485
C           3.7466852     0.6559742     0.6704397
C           3.3382055    -0.3376534     1.7377500
H           4.1807727    -0.5386296     2.4074087
H           3.0244310    -1.2857183     1.2941368
H           2.5162019     0.0350068     2.3626127
C           4.8746874     1.4517798     0.9115041
H           5.3847343     1.3521319     1.8672662
26
356_C11H14O_0-6-18-16 (-120,) energy =    -502.8171629
C           0.7142844    -0.0437179    -0.2437037
H           0.9550997    -0.0895929     0.8216618
H           0.1354017     0.8682838    -0.4203618
C          -0.0066498    -1.3202579    -0.6991329
H          -0.5580133    -1.1330674    -1.6279743
H          -0.7186676    -1.7031811     0.0385208
C           1.9931937    -0.0900809    -1.0987617
H           1.7335439     0.2480619    -2.1151993
O           2.3348832    -1.4885800    -1.1596333
C           1.1635273    -2.2895984    -0.9506289
H           1.3428256    -2.9438523    -0.0864806
H           0.9979094    -2.9276378    -1.8280627
C           5.3926467     2.3507150     0.0174274
H           6.2454950     2.9690386     0.2852482
C           4.7392280     2.5336131    -1.1982113
H           5.0741605     3.2928831    -1.8997520
C           3.6550061     1.7165665    -1.5154367
H           3.1518849     1.8478036    -2.4709598
C           3.1846634     0.7309056    -0.6375695
C           3.8637160     0.5265769     0.5866759
C           3.4823468    -0.5506050     1.5798579
H           4.3237120    -0.7693629     2.2455321
H           3.1961310    -1.4724023     1.0694785
H           2.6430221    -0.2435216     2.2179285
C           4.9563744     1.3505492     0.8860954
H           5.4831788     1.1930681     1.8248927
26
356_C11H14O_0-6-18-16 (-105,) energy =    -502.8182523
C           0.6693151     0.0775704    -0.4029324
H           0.8525159     0.2094721     0.6687789
H           0.1347189     0.9623665    -0.7614055
C          -0.0656229    -1.2411291    -0.6757141
H          -0.5350478    -1.2174793    -1.6663805
H          -0.8433629    -1.4683147     0.0602111
C           1.9966706    -0.1361481    -1.1592625
H           1.8317429     0.1106446    -2.2199803
O           2.2605237    -1.5478436    -1.0746159
C           1.0877351    -2.2534704    -0.6515234
H           1.2503213    -2.6476448     0.3628267
H           0.9279897    -3.1045031    -1.3237796
C           5.2733335     2.4035046     0.0860623
H           6.0873081     3.0547243     0.3937633
C           4.5863034     2.6414644    -1.1011076
H           4.8549096     3.4788612    -1.7395015
C           3.5530471     1.7816219    -1.4719238
H           3.0234808     1.9566792    -2.4062730
C           3.1724301     0.6941371    -0.6758590
C           3.8747987     0.4434597     0.5261271
C           3.5760892    -0.7327644     1.4305110
H           4.2196434    -0.7060137     2.3157466
H           3.7370963    -1.6800206     0.9086394
H           2.5374945    -0.7376050     1.7814079
C           4.9158258     1.3121584     0.8783148
H           5.4616273     1.1215902     1.7998202
26
356_C11H14O_0-6-18-16 (-90,) energy =    -502.8177539
C           0.6885154     0.1310460    -0.5592768
H           0.8056712     0.3705564     0.5043830
H           0.2242780     0.9920628    -1.0486158
C          -0.0832952    -1.1821412    -0.7404608
H          -0.4720583    -1.2588255    -1.7629090
H          -0.9243592    -1.2950001    -0.0491583
C           2.0581145    -0.2181681    -1.1796973
H           1.9875630    -0.0714977    -2.2697149
O           2.2438419    -1.6207572    -0.9462578
C           1.0200529    -2.2220488    -0.5068035
H           1.1034121    -2.4790428     0.5603488
H           0.8675304    -3.1507872    -1.0680213
C           5.1912410     2.4670327     0.1253684
H           5.9643290     3.1595241     0.4479531
C           4.4437078     2.7236815    -1.0215070
H           4.6205131     3.6195099    -1.6107571
C           3.4686422     1.8090508    -1.4144544
H           2.8946889     1.9985442    -2.3197689
C           3.2111776     0.6398660    -0.6859664
C           3.9542000     0.3846078     0.4888886
C           3.7394995    -0.8315613     1.3647369
H           4.3856496    -0.7803334     2.2473087
H           3.9535823    -1.7581497     0.8262809
H           2.7043799    -0.9063955     1.7187631
C           4.9406856     1.3091655     0.8605885
H           5.5232475     1.1120682     1.7578969
26
356_C11H14O_0-6-18-16 (-75,) energy =    -502.8161368
C           0.6675195     0.2034061    -0.7399250
H           0.6998362     0.5909499     0.2854172
H           0.2956434     1.0010895    -1.3889644
C          -0.1559286    -1.0887615    -0.8043079
H          -0.4526797    -1.3049753    -1.8375784
H          -1.0603910    -1.0621260    -0.1884924
C           2.0724250    -0.2856759    -1.1630185
H           2.1310439    -0.2561943    -2.2632876
O           2.1420384    -1.6627719    -0.7766386
C           0.8662291    -2.1203337    -0.3166761
H           0.8689210    -2.1843872     0.7831972
H           0.6993483    -3.1269189    -0.7149067
C           5.1326825     2.4544380     0.2095238
H           5.8854761     3.1638934     0.5429048
C           4.3166374     2.7481241    -0.8813007
H           4.4174229     3.6895514    -1.4148280
C           3.3699407     1.8124072    -1.2884693
H           2.7435986     2.0330995    -2.1512686
C           3.2073517     0.5818141    -0.6339767
C           4.0179132     0.2876223     0.4845984
C           3.9146159    -0.9866156     1.2979391
H           4.6329364    -0.9607713     2.1243048
H           4.1103629    -1.8746058     0.6924318
H           2.9165865    -1.1182699     1.7310793
C           4.9753835     1.2391755     0.8717956
H           5.6105613     1.0133035     1.7255252
26
356_C11H14O_0-6-18-16 (-60,) energy =    -502.8146135
C           0.6962680     0.2422734    -0.9992401
H           0.6305190     0.8328298    -0.0782755
H           0.4197107     0.8923995    -1.8337733
C          -0.1701350    -1.0188706    -0.8931979
H          -0.3821683    -1.4299060    -1.8872997
H          -1.1231025    -0.8480467    -0.3825741
C           2.1275168    -0.3374117    -1.1526017
H           2.3474152    -0.4582762    -2.2253989
O           2.0780284    -1.6578635    -0.5976812
C           0.7631724    -1.9542922    -0.1233330
H           0.6982637    -1.7710452     0.9617833
H           0.5732934    -3.0176620    -0.3017385
C           5.0960395     2.4687173     0.3121741
H           5.8295518     3.1901127     0.6625058
C           4.2147781     2.7937879    -0.7174198
H           4.2453586     3.7732562    -1.1873879
C           3.2910930     1.8438607    -1.1423417
H           2.6123215     2.0957950    -1.9548422
C           3.2139381     0.5641407    -0.5681261
C           4.1037720     0.2295308     0.4763549
C           4.1310468    -1.1078134     1.1902307
H           4.9540613    -1.1240223     1.9128557
H           4.2600381    -1.9422871     0.4974133
H           3.2023317    -1.3007020     1.7377574
C           5.0302577     1.2031839     0.8880163
H           5.7199039     0.9491893     1.6899239
26
356_C11H14O_0-6-18-16 (-45,) energy =    -502.8143115
C           0.7209837     0.1956862    -1.2103303
H           0.5530261     0.9365004    -0.4204010
H           0.5685417     0.6916203    -2.1731667
C          -0.1919433    -1.0190067    -1.0072636
H          -0.2800584    -1.5996582    -1.9331024
H          -1.1992115    -0.7502332    -0.6737713
C           2.1425638    -0.4080770    -1.0707325
H           2.5013801    -0.7225350    -2.0641389
O           1.9718886    -1.6113805    -0.3006757
C           0.5979807    -1.8055897     0.0373676
H           0.3951723    -1.4264624     1.0520796
H           0.3985746    -2.8822525     0.0284353
C           5.0440413     2.4910279     0.3639983
H           5.7678305     3.2266036     0.7050735
C           4.0840620     2.8258801    -0.5878420
H           4.0432823     3.8271811    -1.0084642
C           3.1694148     1.8594060    -0.9982681
H           2.4265330     2.1281373    -1.7449914
C           3.1760553     0.5532281    -0.4816441
C           4.1685027     0.2006989     0.4619058
C           4.3339989    -1.1819628     1.0612170
H           5.2765984    -1.2331230     1.6168167
H           4.3388882    -1.9650032     0.2990538
H           3.5200992    -1.4302224     1.7492080
C           5.0754940     1.1935020     0.8681232
H           5.8347929     0.9274647     1.6001563
26
356_C11H14O_0-6-18-16 (-30,) energy =    -502.8154752
C           2.1269063    -2.0224008    -1.1463617
H           2.5150165    -1.5578490    -2.0583408
H           2.7346048    -2.9058462    -0.9282436
C           0.6268045    -2.3581578    -1.2957683
H           0.3767337    -3.3120000    -0.8201696
H           0.3354341    -2.4315652    -2.3475340
C           2.1420931    -0.9795088    -0.0096654
H           2.0416098    -1.5036827     0.9608005
O           0.9418306    -0.2355459    -0.2540716
C          -0.0758509    -1.1783800    -0.5758561
H          -0.8153108    -0.6608762    -1.1938586
H          -0.5768526    -1.5243611     0.3422153
C           5.6983520     1.4873134     0.2349394
H           6.5952832     2.0971689     0.3053958
C           5.7460595     0.2190920    -0.3363568
H           6.6809040    -0.1837905    -0.7167990
C           4.5774950    -0.5375275    -0.4172066
H           4.6264717    -1.5261946    -0.8635251
C           3.3471933    -0.0547375     0.0508164
C           3.3044865     1.2160526     0.6723164
C           2.0543633     1.8022184     1.2935016
H           2.3104636     2.6807341     1.8949885
H           1.5435192     1.0821453     1.9409560
H           1.3266751     2.1012790     0.5340954
C           4.4877153     1.9651261     0.7343236
H           4.4548638     2.9471479     1.2009605
26
356_C11H14O_0-6-18-16 (-15,) energy =    -502.8169284
C           2.1741696    -2.1801211    -1.0970339
H           2.5908688    -1.8310534    -2.0475565
H           2.7639800    -3.0360470    -0.7543505
C           0.6763040    -2.5078980    -1.2519137
H           0.3771937    -3.3112535    -0.5703716
H           0.4293793    -2.8318241    -2.2671571
C           2.1537910    -1.0134849    -0.0977488
H           1.9477114    -1.4154888     0.9135600
O           1.0153630    -0.2516928    -0.5310586
C          -0.0194877    -1.1747386    -0.8692166
H          -0.5927962    -0.7324019    -1.6900409
H          -0.6994059    -1.3152961    -0.0149431
C           5.7000348     1.4556216     0.1817047
H           6.5895833     2.0748758     0.2633890
C           5.7398852     0.2483469    -0.5094003
H           6.6610901    -0.0938448    -0.9733688
C           4.5831317    -0.5271221    -0.6026051
H           4.6274703    -1.4692778    -1.1399597
C           3.3759353    -0.1170467    -0.0246199
C           3.3416109     1.0927628     0.7083842
C           2.0981620     1.5742147     1.4221437
H           2.3361735     2.4170239     2.0790575
H           1.6525128     0.7828421     2.0370596
H           1.3249184     1.8871816     0.7153310
C           4.5092651     1.8611163     0.7850746
H           4.4831146     2.7954694     1.3414507
26
356_C11H14O_0-6-18-16 (0,) energy =    -502.8175012
C           2.0518973    -2.0612294    -0.8044602
H           2.5358335    -1.8904898    -1.7715443
H           2.5609259    -2.8899026    -0.3024378
C           0.5437898    -2.3049690    -1.0027326
H           0.1434111    -2.9395001    -0.2047767
H           0.3243425    -2.7983254    -1.9541549
C           2.0575208    -0.7626229     0.0112663
H           1.7441480    -1.0042597     1.0447499
O           1.0182942     0.0115866    -0.6138143
C          -0.0585625    -0.8768551    -0.9219561
H          -0.4966905    -0.5393443    -1.8668760
H          -0.8357506    -0.8174494    -0.1452879
C           5.7011303     1.5631312     0.2397660
H           6.6105368     2.1548049     0.3060524
C           5.6737230     0.3915205    -0.5108804
H           6.5612859     0.0521640    -1.0381823
C           4.4932155    -0.3504893    -0.5851199
H           4.4863797    -1.2648534    -1.1697296
C           3.3319800     0.0568364     0.0794191
C           3.3627672     1.2375429     0.8581532
C           2.1528273     1.7119928     1.6307644
H           2.3663362     2.6518618     2.1490461
H           1.8491362     0.9779447     2.3898162
H           1.2931569     1.8581807     0.9713636
C           4.5512045     1.9731423     0.9160822
H           4.5746999     2.8847085     1.5090882
26
356_C11H14O_0-6-18-16 (15,) energy =    -502.8171909
C           2.0568644    -2.1170894    -0.6387456
H           2.6141533    -2.0973184    -1.5806031
H           2.4956353    -2.8841483     0.0067600
C           0.5582925    -2.3384328    -0.9197745
H           0.0746519    -2.8382364    -0.0735298
H           0.3865634    -2.9563492    -1.8061087
C           2.0483154    -0.7258332     0.0041627
H           1.6514438    -0.8376862     1.0293180
O           1.0857990    -0.0012495    -0.7824966
C           0.0112502    -0.8954036    -1.0875211
H          -0.3139417    -0.6758677    -2.1100200
H          -0.8389580    -0.7123288    -0.4138465
C           5.6944816     1.5944295     0.2187038
H           6.6025908     2.1886970     0.2792263
C           5.6377297     0.4755987    -0.6079742
H           6.4993892     0.1839813    -1.2025389
C           4.4612471    -0.2729570    -0.6733555
H           4.4308045    -1.1442333    -1.3196906
C           3.3363602     0.0707416     0.0827007
C           3.3898223     1.2108615     0.9169086
C           2.1971884     1.6428173     1.7411955
H           2.3740339     2.6221621     2.1962470
H           1.9894766     0.9360280     2.5563684
H           1.2939407     1.7037356     1.1265589
C           4.5742155     1.9534100     0.9693225
H           4.6160267     2.8319053     1.6094305
26
356_C11H14O_0-6-18-16 (30,) energy =    -502.8164113
C           1.9471809    -1.9612258    -0.4206812
H           2.5597797    -2.0733324    -1.3211071
H           2.3146992    -2.6640047     0.3334444
C           0.4622314    -2.1508480    -0.7659522
H          -0.1069094    -2.4039845     0.1360626
H           0.2866117    -2.9424964    -1.5008217
C           1.9519074    -0.5095009     0.0728425
H           1.5156810    -0.5102782     1.0843110
O           1.0448591     0.1720205    -0.8168431
C           0.0579242    -0.7553942    -1.2881083
H           0.0512697    -0.7120558    -2.3849564
H          -0.9370927    -0.4547951    -0.9329507
C           5.6657699     1.7127947     0.1733648
H           6.5926006     2.2797612     0.2051748
C           5.4951595     0.6898343    -0.7567846
H           6.2848573     0.4492920    -1.4635799
C           4.2981933    -0.0258029    -0.7791759
H           4.1751797    -0.8166643    -1.5125310
C           3.2636925     0.2520713     0.1209501
C           3.4259239     1.3051229     1.0484630
C           2.3244721     1.6978489     2.0103341
H           2.5746712     2.6331240     2.5204505
H           2.1619150     0.9370905     2.7853980
H           1.3720641     1.8409134     1.4889637
C           4.6328507     2.0145036     1.0604255
H           4.7595465     2.8242256     1.7755871
26
356_C11H14O_0-6-18-16 (45,) energy =    -502.8166443
C           1.9014413    -1.9125723    -0.2211603
H           2.6406411    -2.1502816    -0.9926718
H           2.1552356    -2.4850729     0.6768057
C           0.4783043    -2.1779094    -0.7325405
H          -0.2094027    -2.3113044     0.1105752
H           0.4056671    -3.0698914    -1.3624934
C           1.8559311    -0.3991429     0.0414218
H           1.3098427    -0.2353863     0.9812952
O           1.0704353     0.1208270    -1.0501235
C           0.1497258    -0.8802495    -1.5009785
H           0.2821817    -0.9976758    -2.5844308
H          -0.8814679    -0.5461447    -1.3225996
C           5.6470615     1.6877359     0.1218441
H           6.6000351     2.2099306     0.1455868
C           5.3757499     0.7572072    -0.8803373
H           6.1118209     0.5463500    -1.6515631
C           4.1487810     0.0976274    -0.8878462
H           3.9348567    -0.6118467    -1.6818798
C           3.1765222     0.3467577     0.0889198
C           3.4426773     1.2992098     1.0953770
C           2.4323837     1.6480289     2.1691563
H           2.7980074     2.4769184     2.7830570
H           2.2345539     0.8056228     2.8440973
H           1.4709967     1.9521034     1.7396098
C           4.6830728     1.9522012     1.0927744
H           4.8910095     2.6864512     1.8678383
26
356_C11H14O_0-6-18-16 (60,) energy =    -502.8180270
C           1.8449504    -1.8126349    -0.0567211
H           2.6777827    -2.1367134    -0.6902002
H           1.9902039    -2.2438125     0.9391002
C           0.4959085    -2.1757976    -0.6907169
H          -0.2923466    -2.1827666     0.0711347
H           0.4960323    -3.1568614    -1.1759536
C           1.7763492    -0.2753311    -0.0320407
H           1.1356843     0.0365834     0.8043805
O           1.1215922     0.0599874    -1.2711114
C           0.2772292    -1.0201363    -1.6879013
H           0.5626550    -1.3007914    -2.7104618
H          -0.7685067    -0.6853535    -1.7109577
C           5.6386829     1.6624095     0.0952394
H           6.6148751     2.1391936     0.1286058
C           5.2875113     0.8454110    -0.9795596
H           5.9845636     0.6784749    -1.7964825
C           4.0317687     0.2444720    -0.9996317
H           3.7428301    -0.3724521    -1.8458363
C           3.1078349     0.4470603     0.0337751
C           3.4571261     1.2743593     1.1205350
C           2.5140972     1.5429892     2.2755432
H           2.9597055     2.2570523     2.9750224
H           2.2813459     0.6331282     2.8429324
H           1.5603016     1.9651118     1.9372105
C           4.7267995     1.8699263     1.1280269
H           5.0000093     2.5113903     1.9629503
26
356_C11H14O_0-6-18-16 (75,) energy =    -502.8193363
C           1.7778770    -1.7030862     0.0857288
H           2.6634166    -2.1120000    -0.4142662
H           1.8220386    -1.9882879     1.1417514
C           0.4913412    -2.1491889    -0.6194107
H          -0.3697683    -2.0303034     0.0486728
H           0.5162112    -3.1929958    -0.9475832
C           1.7367809    -0.1768456    -0.1199731
H           1.0338997     0.2638080     0.6019913
O           1.1985227    -0.0183074    -1.4439841
C           0.4053864    -1.1590217    -1.7965479
H           0.8125953    -1.5884474    -2.7218455
H          -0.6253343    -0.8398639    -1.9986545
C           5.6379987     1.6674212     0.1045277
H           6.6245496     2.1196384     0.1647964
C           5.2492008     0.9659325    -1.0365223
H           5.9286798     0.8653395    -1.8788338
C           3.9792834     0.3960219    -1.0925909
H           3.6555108    -0.1305354    -1.9851305
C           3.0802464     0.5183323    -0.0260593
C           3.4682355     1.2235020     1.1314939
C           2.5504888     1.3858313     2.3254274
H           3.0432134     1.9643198     3.1129767
H           2.2602702     0.4216071     2.7610416
H           1.6236146     1.9110280     2.0624989
C           4.7499419     1.7895934     1.1718980
H           5.0528463     2.3381559     2.0610936
26
356_C11H14O_0-6-18-16 (90,) energy =    -502.8200585
C           1.6628116    -1.5352837     0.1485242
H           2.5769829    -2.0304104    -0.1993264
H           1.5858931    -1.6837821     1.2298592
C           0.4402430    -2.0353629    -0.6298358
H          -0.4822678    -1.7855281    -0.0923475
H           0.4458508    -3.1160075    -0.8034123
C           1.7036575    -0.0452180    -0.2491844
H           0.9776030     0.5080021     0.3666101
O           1.2503144    -0.0197722    -1.6114412
C           0.5438922    -1.2254420    -1.9309543
H           1.1068062    -1.7727923    -2.7005985
H          -0.4355709    -0.9646500    -2.3498516
C           5.6452620     1.7030916     0.0571444
H           6.6401490     2.1330364     0.1392251
C           5.2189163     1.1295215    -1.1396230
H           5.8764870     1.1081493    -2.0048545
C           3.9376763     0.5864427    -1.2257803
H           3.5837416     0.1577849    -2.1573642
C           3.0685620     0.6055083    -0.1294854
C           3.4919751     1.1883210     1.0838657
C           2.5974587     1.2454502     2.3038332
H           3.0989206     1.7649979     3.1261267
H           2.3244432     0.2462983     2.6659661
H           1.6595951     1.7782425     2.1009854
C           4.7823745     1.7288117     1.1524892
H           5.1123348     2.1815133     2.0850722
26
356_C11H14O_0-6-18-16 (105,) energy =    -502.8198653
C           1.4639554    -1.5029765     0.2904263
H           2.3950793    -2.0598722     0.1326253
H           1.2420522    -1.5090562     1.3607194
C           0.3341121    -2.0839018    -0.5688847
H          -0.6420070    -1.7521969    -0.1952338
H           0.3311470    -3.1779719    -0.6020183
C           1.6080612    -0.0723582    -0.2792576
H           0.8892567     0.5876030     0.2326383
O           1.2030530    -0.1653469    -1.6538392
C           0.6303936    -1.4479366    -1.9298066
H           1.3456106    -2.0567481    -2.5039368
H          -0.2630773    -1.3007826    -2.5466521
C           5.5832081     1.6178457     0.0091169
H           6.5812309     2.0417257     0.0844885
C           5.1012635     1.1531700    -1.2127121
H           5.7178054     1.2123834    -2.1059870
C           3.8150312     0.6189578    -1.2900580
H           3.4180327     0.2746958    -2.2384291
C           2.9991292     0.5285638    -0.1574728
C           3.4760965     1.0108543     1.0813267
C           2.6379902     0.9683175     2.3408573
H           3.1141646     1.5430422     3.1412288
H           2.5010742    -0.0551634     2.7120220
H           1.6359530     1.3872078     2.1844465
C           4.7683135     1.5472387     1.1389636
H           5.1378275     1.9216919     2.0912962
26
356_C11H14O_0-6-18-16 (120,) energy =    -502.8189509
C           1.2560191    -1.2903174     0.4456094
H           2.1952377    -1.8352353     0.5939857
H           0.7941076    -1.1461307     1.4251704
C           0.3482532    -2.0458436    -0.5378713
H          -0.7004490    -1.7593798    -0.3978146
H           0.4228782    -3.1338413    -0.4427414
C           1.5293131     0.0581401    -0.2814990
H           0.8550165     0.8307888     0.1181882
O           1.1383924    -0.1402312    -1.6499737
C           0.8580747    -1.5209841    -1.8787846
H           1.7687728    -2.0576044    -2.1913077
H           0.1271502    -1.5799051    -2.6910997
C           5.5823143     1.5795611    -0.0436640
H           6.5957822     1.9676549     0.0167484
C           5.0213517     1.2516062    -1.2757021
H           5.5898010     1.3845689    -2.1926488
C           3.7163151     0.7614726    -1.3323803
H           3.2595026     0.5211493    -2.2858002
C           2.9622464     0.5692676    -0.1701365
C           3.5160171     0.9261484     1.0795559
C           2.7384907     0.8050107     2.3727100
H           3.2412949     1.3510569     3.1769957
H           2.6381015    -0.2373932     2.6992915
H           1.7229603     1.2105452     2.2825107
C           4.8248256     1.4223438     1.1170674
H           5.2529602     1.6976836     2.0787213
26
356_C11H14O_0-6-18-16 (135,) energy =    -502.8168068
C           1.1011928    -1.1774489     0.4694774
H           2.0004371    -1.7328083     0.7579144
H           0.5636065    -0.9104523     1.3818589
C           0.2527383    -2.0174662    -0.4999633
H          -0.7943137    -1.6938028    -0.4821541
H           0.2849380    -3.0894920    -0.2805653
C           1.4861809     0.0691255    -0.3779469
H           0.8222324     0.9056441    -0.1092147
O           1.1677145    -0.2590672    -1.7401839
C           0.8854588    -1.6539547    -1.8415077
H           1.8101219    -2.2294434    -2.0114458
H           0.2265001    -1.7952111    -2.7035095
C           5.5227641     1.6440349    -0.1025998
H           6.5280645     2.0521779    -0.0378759
C           4.9265518     1.4163430    -1.3403885
H           5.4570417     1.6508170    -2.2597182
C           3.6343814     0.8949818    -1.3975628
H           3.1570234     0.7180963    -2.3547152
C           2.9271132     0.5610666    -0.2358158
C           3.5074310     0.8408645     1.0225932
C           2.7743666     0.6399117     2.3332483
H           3.3048561     1.1450357     3.1464062
H           2.6861837    -0.4172306     2.6094405
H           1.7570825     1.0488394     2.3014444
C           4.8059976     1.3659137     1.0604324
H           5.2565432     1.5728131     2.0289346
26
356_C11H14O_0-6-18-16 (150,) energy =    -502.8133062
C           1.0663700    -1.1150895     0.4448309
H           1.8836877    -1.7596199     0.7876739
H           0.5604784    -0.7070151     1.3216934
C           0.1273506    -1.9098827    -0.4741828
H          -0.8403924    -1.4025246    -0.5672847
H          -0.0553305    -2.9320771    -0.1277817
C           1.6018226    -0.0170907    -0.5005865
H           0.9057264     0.8385089    -0.4525532
O           1.4945213    -0.5571946    -1.8309900
C           0.8853446    -1.8490296    -1.7994286
H           1.6572615    -2.6333283    -1.8499556
H           0.2433965    -1.9430178    -2.6816677
C           5.5263174     1.7952595    -0.0573932
H           6.5015619     2.2654563     0.0385549
C           4.9492850     1.5991370    -1.3097270
H           5.4626858     1.9205183    -2.2122560
C           3.6988570     0.9921423    -1.4013328
H           3.2479185     0.8267957    -2.3732276
C           3.0077657     0.5413779    -0.2658654
C           3.5643828     0.7917184     1.0098294
C           2.8647618     0.4867205     2.3202224
H           3.4228043     0.9249181     3.1533973
H           2.7782307    -0.5871122     2.5176434
H           1.8517611     0.9045362     2.3532113
C           4.8268754     1.4003987     1.0802850
H           5.2619453     1.5782899     2.0613543
26
356_C11H14O_0-6-18-16 (165,) energy =    -502.8107921
C           1.0489361    -1.0465504     0.3231330
H           1.7639242    -1.7115041     0.8163534
H           0.5070930    -0.4871563     1.0889634
C           0.1074641    -1.8601989    -0.5901424
H          -0.8847045    -1.3992311    -0.6413780
H          -0.0269354    -2.8844364    -0.2301012
C           1.7809531    -0.1527367    -0.6900791
H           1.0664946     0.6318942    -1.0096702
O           1.9999852    -1.0370941    -1.7992734
C           0.8094961    -1.8045212    -1.9729025
H           1.1093614    -2.7874754    -2.3491665
H           0.1595372    -1.3331590    -2.7258376
C           5.5000401     2.0015687    -0.0991441
H           6.4281108     2.5544057     0.0208627
C           4.9777882     1.7527864    -1.3669464
H           5.4887309     2.1103651    -2.2569933
C           3.7871984     1.0431340    -1.4853532
H           3.3807598     0.8367697    -2.4701845
C           3.0973323     0.5473669    -0.3655870
C           3.6071739     0.8254528     0.9221243
C           2.9354081     0.4291743     2.2228046
H           3.4782682     0.8611886     3.0690240
H           2.9115837    -0.6550605     2.3735298
H           1.9025795     0.7884910     2.2837991
C           4.8106102     1.5444396     1.0197567
H           5.2085014     1.7524345     2.0104169
26
356_C11H14O_0-6-18-16 (180,) energy =    -502.8095928
C           0.9101290    -0.7918677     0.2092714
H           1.5153135    -1.4355212     0.8516150
H           0.3251165    -0.1156544     0.8396820
C           0.0329017    -1.6517925    -0.7187712
H          -0.8509481    -1.0902804    -1.0413051
H          -0.3186157    -2.5677013    -0.2343644
C           1.7955341    -0.0652935    -0.8103852
H           1.1536383     0.6767326    -1.3228074
O           2.1231828    -1.1035127    -1.7525593
C           0.9693567    -1.9329809    -1.9205493
H           1.3156602    -2.9718923    -1.9560359
H           0.4748005    -1.7068865    -2.8764152
C           5.4886737     2.1132571    -0.1675929
H           6.4129850     2.6708453    -0.0408693
C           4.9148730     1.9636119    -1.4292329
H           5.3822917     2.4008737    -2.3074290
C           3.7272859     1.2511754    -1.5518290
H           3.2767541     1.1264194    -2.5326571
C           3.0878625     0.6599369    -0.4483330
C           3.6633790     0.8155933     0.8312091
C           3.0879551     0.2540741     2.1166704
H           3.6416707     0.6463067     2.9753172
H           3.1600223    -0.8389080     2.1596991
H           2.0358234     0.5175644     2.2594812
C           4.8593627     1.5470982     0.9363360
H           5.3030006     1.6710168     1.9216186
