18
213_C7H5F3O2S_6-11-14-16 (-165,) energy =   -1117.8329569
C           0.5302331     0.6846867    -0.6345825
H           1.1905951     1.2134064    -1.3133534
C          -0.6161155     1.2874456    -0.1190761
H          -0.8549423     2.3115367    -0.3901107
C          -1.4573392     0.5738151     0.7389670
H          -2.3496424     1.0495396     1.1361801
C           0.8101180    -0.6359512    -0.2753271
C          -1.1642451    -0.7477930     1.0847329
H          -1.8273632    -1.2991981     1.7446167
C          -0.0219901    -1.3659409     0.5770642
H           0.2160289    -2.3966928     0.8174353
S           2.2728204    -1.4273418    -0.9377545
O           2.0947669    -2.8815200    -0.9109650
O           2.7017794    -0.7064486    -2.1399834
C           3.5796514    -1.0384370     0.3638063
F           3.5017041     0.2542480     0.7045804
F           4.7813514    -1.2840381    -0.1510521
F           3.3875690    -1.7900870     1.4489322
18
213_C7H5F3O2S_6-11-14-16 (-150,) energy =   -1117.8318523
C           0.5392786     0.6775176    -0.6400700
H           1.2055595     1.1960765    -1.3209484
C          -0.6041417     1.2940244    -0.1347594
H          -0.8335177     2.3175861    -0.4158672
C          -1.4548423     0.5953257     0.7264074
H          -2.3445184     1.0818397     1.1163046
C           0.8086457    -0.6412892    -0.2668617
C          -1.1741315    -0.7255280     1.0841730
H          -1.8443033    -1.2664038     1.7456352
C          -0.0341680    -1.3565555     0.5866749
H           0.1946090    -2.3870754     0.8370314
S           2.2675294    -1.4519742    -0.9164534
O           2.0858685    -2.9046094    -0.8549329
O           2.6880613    -0.7578710    -2.1373743
C           3.5976832    -1.0314277     0.3659792
F           3.3360698     0.1641498     0.9115779
F           4.7766752    -0.9792655    -0.2469265
F           3.6214887    -1.9548982     1.3252818
18
213_C7H5F3O2S_6-11-14-16 (-135,) energy =   -1117.8305718
C           0.5451499     0.6693898    -0.6586549
H           1.2137513     1.1717645    -1.3495131
C          -0.5945678     1.2993982    -0.1614471
H          -0.8182671     2.3193847    -0.4595260
C          -1.4475913     0.6188975     0.7117751
H          -2.3343275     1.1161420     1.0947726
C           0.8075125    -0.6440198    -0.2636641
C          -1.1731336    -0.6976597     1.0900775
H          -1.8451713    -1.2247187     1.7607466
C          -0.0371264    -1.3424832     0.6015686
H           0.1866261    -2.3702563     0.8677224
S           2.2590783    -1.4729339    -0.9083232
O           2.0654281    -2.9228664    -0.8225355
O           2.6735228    -0.8002159    -2.1430084
C           3.6104192    -1.0458541     0.3674322
F           3.2090237    -0.0245125     1.1360372
F           4.7143740    -0.6914938    -0.2828883
F           3.8552286    -2.1031337     1.1368093
18
213_C7H5F3O2S_6-11-14-16 (-120,) energy =   -1117.8299823
C           0.5407292     0.6672480    -0.6783660
H           1.2068678     1.1567299    -1.3809304
C          -0.5985580     1.3077733    -0.1927448
H          -0.8234092     2.3216218    -0.5102742
C          -1.4512229     0.6436087     0.6927539
H          -2.3385521     1.1473604     1.0657401
C           0.8030417    -0.6387925    -0.2600425
C          -1.1761218    -0.6656360     1.0959555
H          -1.8483880    -1.1795594     1.7765316
C          -0.0408981    -1.3200911     0.6192935
H           0.1825343    -2.3427198     0.9044919
S           2.2464756    -1.4823876    -0.9049942
O           2.0395972    -2.9287500    -0.7903823
O           2.6545868    -0.8368184    -2.1557704
C           3.6160245    -1.0591841     0.3603103
F           3.1265867    -0.2835134     1.3359952
F           4.5990452    -0.4154351    -0.2620004
F           4.0828141    -2.1868224     0.8882986
18
213_C7H5F3O2S_6-11-14-16 (-105,) energy =   -1117.8305759
C           0.5546256     0.6545449    -0.6954497
H           1.2213437     1.1291371    -1.4077357
C          -0.5815131     1.3083740    -0.2193474
H          -0.8024476     2.3174296    -0.5543713
C          -1.4348158     0.6635804     0.6794391
H          -2.3190373     1.1771613     1.0463298
C           0.8132483    -0.6448203    -0.2543703
C          -1.1640823    -0.6398097     1.1048686
H          -1.8365448    -1.1390329     1.7961533
C          -0.0322743    -1.3067099     0.6384250
H           0.1889694    -2.3240863     0.9428933
S           2.2614423    -1.4965013    -0.8766690
O           2.0565334    -2.9401214    -0.7264240
O           2.6778877    -0.8827259    -2.1403674
C           3.6126238    -1.0520334     0.3933394
F           3.0603773    -0.5614182     1.5098045
F           4.4378010    -0.1480292    -0.1294214
F           4.2935973    -2.1557661     0.6877172
18
213_C7H5F3O2S_6-11-14-16 (-90,) energy =   -1117.8318466
C           0.5570842     0.6454106    -0.7142406
H           1.2256568     1.1054983    -1.4342219
C          -0.5752578     1.3129149    -0.2480119
H          -0.7919905     2.3175742    -0.5986203
C          -1.4304406     0.6867617     0.6619112
H          -2.3113917     1.2110691     1.0214571
C           0.8097182    -0.6483853    -0.2526449
C          -1.1658178    -0.6110458     1.1083103
H          -1.8400717    -1.0948307     1.8087444
C          -0.0381423    -1.2915535     0.6520478
H           0.1792708    -2.3043764     0.9736298
S           2.2587620    -1.5108887    -0.8556347
O           2.0556755    -2.9520987    -0.6800827
O           2.6839441    -0.9215290    -2.1278109
C           3.5904152    -1.0480271     0.4110500
F           3.0374625    -0.8568567     1.6143188
F           4.2188881     0.0625336     0.0268924
F           4.4655496    -2.0482349     0.4812373
18
213_C7H5F3O2S_6-11-14-16 (-75,) energy =   -1117.8329498
C           0.5865362     0.6143737    -0.7169346
H           1.2643600     1.0556347    -1.4399153
C          -0.5350544     1.3041634    -0.2579084
H          -0.7336472     2.3091517    -0.6181447
C          -1.4024957     0.7005888     0.6560859
H          -2.2755778     1.2424051     1.0088705
C           0.8157875    -0.6797827    -0.2431926
C          -1.1603331    -0.5969528     1.1153895
H          -1.8434231    -1.0631316     1.8191638
C          -0.0431241    -1.3000287     0.6673026
H           0.1578497    -2.3131211     0.9984777
S           2.2505098    -1.5728622    -0.8331926
O           2.0390836    -3.0079798    -0.6216858
O           2.6737992    -1.0186719    -2.1217889
C           3.5833562    -1.0814643     0.4059086
F           3.1006475    -1.1598802     1.6506893
F           3.9921876     0.1664527     0.1666372
F           4.6106999    -1.9173977     0.2743166
18
213_C7H5F3O2S_6-11-14-16 (-60,) energy =   -1117.8333786
C           0.5773835     0.6369662    -0.7204715
H           1.2607234     1.0663100    -1.4452032
C          -0.5512351     1.3309076    -0.2864035
H          -0.7512508     2.3272748    -0.6691079
C          -1.4242171     0.7428526     0.6327253
H          -2.3026761     1.2884112     0.9658174
C           0.8076736    -0.6460662    -0.2178380
C          -1.1807413    -0.5431466     1.1222268
H          -1.8678635    -0.9974665     1.8298114
C          -0.0566485    -1.2505965     0.6983091
H           0.1447391    -2.2560048     1.0520346
S           2.2496372    -1.5483595    -0.7738909
O           2.0330600    -2.9825707    -0.5638412
O           2.6994846    -0.9981713    -2.0556577
C           3.5537769    -1.0410323     0.4836263
F           3.1625761    -1.3976676     1.7109983
F           3.7273929     0.2837950     0.4469925
F           4.6985530    -1.6497809     0.1853438
18
213_C7H5F3O2S_6-11-14-16 (-45,) energy =   -1117.8329426
C           0.5783752     0.6268764    -0.7483879
H           1.2606394     1.0399651    -1.4834461
C          -0.5458218     1.3323468    -0.3221637
H          -0.7438815     2.3220227    -0.7228378
C          -1.4164685     0.7653021     0.6125970
H          -2.2912121     1.3203675     0.9397210
C           0.8067381    -0.6471142    -0.2229370
C          -1.1751670    -0.5119547     1.1248574
H          -1.8603184    -0.9508893     1.8439961
C          -0.0556340    -1.2313288     0.7080945
H           0.1423741    -2.2314103     1.0787634
S           2.2407266    -1.5696184    -0.7680340
O           2.0088215    -3.0008398    -0.5562211
O           2.6992198    -1.0252325    -2.0496401
C           3.5572946    -1.0655278     0.4837211
F           3.3298202    -1.6745817     1.6501798
F           3.5202924     0.2588628     0.6713679
F           4.7513763    -1.4199588     0.0183106
18
213_C7H5F3O2S_6-11-14-16 (-30,) energy =   -1117.8318191
C           0.6097446     0.6311873    -0.7552217
H           1.2965730     1.0371249    -1.4900234
C          -0.5167058     1.3424346    -0.3452502
H          -0.7114888     2.3279756    -0.7576530
C          -1.3949688     0.7865549     0.5891585
H          -2.2712904     1.3463076     0.9037674
C           0.8343123    -0.6364008    -0.2131298
C          -1.1589294    -0.4853999     1.1163007
H          -1.8504766    -0.9158638     1.8344038
C          -0.0363661    -1.2098975     0.7161314
H           0.1579623    -2.2062038     1.0990265
S           2.2701797    -1.5689004    -0.7386738
O           2.0421488    -2.9949386    -0.4917603
O           2.7188576    -1.0522763    -2.0354046
C           3.6062769    -1.0273347     0.4917952
F           3.5917972    -1.8316465     1.5553497
F           3.3737393     0.2279157     0.8958255
F           4.7916283    -1.0939046    -0.1053913
18
213_C7H5F3O2S_6-11-14-16 (-15,) energy =   -1117.8305573
C           0.6158249     0.6132050    -0.7675427
H           1.3061565     1.0011815    -1.5088794
C          -0.5081687     1.3374206    -0.3734066
H          -0.6965932     2.3157653    -0.8053834
C          -1.3913426     0.8034403     0.5689934
H          -2.2656068     1.3731775     0.8711576
C           0.8326876    -0.6447423    -0.2012639
C          -1.1628711    -0.4598894     1.1197701
H          -1.8582407    -0.8739477     1.8438367
C          -0.0430732    -1.1971272     0.7356845
H           0.1449593    -2.1874153     1.1371054
S           2.2631924    -1.5950528    -0.7122408
O           2.0247768    -3.0147860    -0.4391030
O           2.7092124    -1.1044989    -2.0196192
C           3.6169403    -1.0442798     0.5124786
F           3.8187714    -2.0056699     1.4113261
F           3.2398213     0.0732069     1.1471341
F           4.7393962    -0.8161766    -0.1611158
18
213_C7H5F3O2S_6-11-14-16 (0,) energy =   -1117.8299832
C           0.3767403     0.6033503    -0.8889773
H           1.0199578     0.9506041    -1.6905834
C          -0.6309935     1.4138022    -0.3674246
H          -0.7722984     2.4172412    -0.7578470
C          -1.4607208     0.9327475     0.6486279
H          -2.2456624     1.5676370     1.0498995
C           0.5329641    -0.6853527    -0.3747476
C          -1.2938957    -0.3616482     1.1475491
H          -1.9488180    -0.7327250     1.9302622
C          -0.2906581    -1.1841440     0.6363906
H          -0.1553439    -2.1986773     0.9960918
S           1.8051553    -1.7451561    -1.0600548
O           1.4536975    -3.1423290    -0.7910876
O           2.1565087    -1.2594016    -2.3973441
C           3.3303078    -1.3812350     0.0344514
F           3.7191859    -2.5061006     0.6268145
F           3.0277425    -0.4710313     0.9689910
F           4.3122994    -0.9138493    -0.7307861
18
213_C7H5F3O2S_6-11-14-16 (15,) energy =   -1117.8305568
C           0.3900382     0.5934165    -0.9058802
H           1.0340838     0.9253383    -1.7134037
C          -0.6150365     1.4163232    -0.3981917
H          -0.7533860     2.4134709    -0.8054370
C          -1.4450519     0.9552183     0.6264261
H          -2.2270935     1.5996587     1.0180239
C           0.5436594    -0.6865417    -0.3691028
C          -1.2822304    -0.3316021     1.1467913
H          -1.9374585    -0.6872201     1.9364046
C          -0.2819944    -1.1659214     0.6499951
H          -0.1482011    -2.1737075     1.0282599
S           1.8213365    -1.7544238    -1.0309627
O           1.4684558    -3.1461273    -0.7348790
O           2.1851349    -1.2991256    -2.3753310
C           3.3268951    -1.3779381     0.0771069
F           3.9048528    -2.5236384     0.4216420
F           2.9384737    -0.7222241     1.1784320
F           4.1927852    -0.6210055    -0.5940811
18
213_C7H5F3O2S_6-11-14-16 (30,) energy =   -1117.8318179
C           0.3920640     0.5744532    -0.9205358
H           1.0364693     0.8858316    -1.7359098
C          -0.6040278     1.4133783    -0.4213634
H          -0.7347665     2.4045995    -0.8451430
C          -1.4330063     0.9761400     0.6145960
H          -2.2077342     1.6333590     0.9994464
C           0.5365804    -0.6979112    -0.3632364
C          -1.2785512    -0.3031932     1.1559809
H          -1.9317962    -0.6410024     1.9550180
C          -0.2876868    -1.1535067     0.6682746
H          -0.1589292    -2.1555148     1.0630292
S           1.8076827    -1.7820390    -1.0083582
O           1.4541998    -3.1673984    -0.6832593
O           2.1716309    -1.3557936    -2.3619287
C           3.3019914    -1.3885432     0.0889269
F           4.0599442    -2.4750983     0.1887091
F           2.8889511    -1.0129547     1.3059586
F           4.0080059    -0.3944271    -0.4521107
18
213_C7H5F3O2S_6-11-14-16 (45,) energy =   -1117.8329426
C           0.4193123     0.5381071    -0.9204524
H           1.0728821     0.8318787    -1.7348928
C          -0.5680908     1.3965081    -0.4379845
H          -0.6830048     2.3847740    -0.8731527
C          -1.4105239     0.9824472     0.5968282
H          -2.1789883     1.6549552     0.9676126
C           0.5417531    -0.7302387    -0.3476019
C          -1.2774970    -0.2920907     1.1545909
H          -1.9415548    -0.6102471     1.9527329
C          -0.2948405    -1.1618974     0.6844472
H          -0.1818270    -2.1606979     1.0919413
S           1.8025602    -1.8393850    -0.9677903
O           1.4473173    -3.2151705    -0.6070976
O           2.1653145    -1.4500009    -2.3330050
C           3.2920129    -1.4142335     0.1068627
F           4.2027864    -2.3745268    -0.0210326
F           2.9141130    -1.3177304     1.3869308
F           3.8114993    -0.2466359    -0.2807089
18
213_C7H5F3O2S_6-11-14-16 (60,) energy =   -1117.8333785
C           0.4098839     0.5274356    -0.9454027
H           1.0569916     0.8044510    -1.7706577
C          -0.5751714     1.3930486    -0.4719364
H          -0.6962266     2.3716009    -0.9269012
C          -1.4066648     0.9992913     0.5798486
H          -2.1732434     1.6779469     0.9432586
C           0.5400933    -0.7282283    -0.3469608
C          -1.2651081    -0.2622101     1.1640871
H          -1.9204730    -0.5648964     1.9753154
C          -0.2850206    -1.1398377     0.7026477
H          -0.1667976    -2.1299087     1.1296521
S           1.7974012    -1.8493073    -0.9510478
O           1.4357346    -3.2225104    -0.5884177
O           2.1710239    -1.4664204    -2.3155575
C           3.2785787    -1.4114958     0.1232016
F           4.3052100    -2.1828315    -0.2246038
F           2.9815700    -1.6139123     1.4106897
F           3.6019695    -0.1267725    -0.0550272
18
213_C7H5F3O2S_6-11-14-16 (75,) energy =   -1117.8329498
C           0.4042144     0.5169084    -0.9613330
H           1.0526543     0.7767017    -1.7910618
C          -0.5829199     1.3908432    -0.5085610
H          -0.7048469     2.3589076    -0.9852386
C          -1.4154491     1.0194970     0.5508016
H          -2.1834152     1.7051203     0.8978428
C           0.5354223    -0.7250066    -0.3353624
C          -1.2730595    -0.2284271     1.1627540
H          -1.9292503    -0.5143366     1.9793913
C          -0.2912387    -1.1148214     0.7213134
H          -0.1738145    -2.0957473     1.1694538
S           1.7918949    -1.8621849    -0.9118217
O           1.4190712    -3.2296222    -0.5402792
O           2.1797524    -1.4924964    -2.2763338
C           3.2766320    -1.4189534     0.1618081
F           4.3646333    -1.9648261    -0.3763446
F           3.1055846    -1.8942505     1.3973279
F           3.4227107    -0.0905056     0.2129853
18
213_C7H5F3O2S_6-11-14-16 (90,) energy =   -1117.8318468
C           0.4113468     0.5098862    -0.9592726
H           1.0678222     0.7567387    -1.7866727
C          -0.5789735     1.3918420    -0.5301384
H          -0.6949046     2.3526089    -1.0228705
C          -1.4226619     1.0382020     0.5265618
H          -2.1925526     1.7305954     0.8553512
C           0.5357664    -0.7216115    -0.3119407
C          -1.2885651    -0.2005052     1.1584142
H          -1.9537244    -0.4735179     1.9721910
C          -0.3028766    -1.0944901     0.7408090
H          -0.1913655    -2.0687125     1.2050363
S           1.7964376    -1.8704461    -0.8578297
O           1.4285583    -3.2282929    -0.4486961
O           2.1770295    -1.5337399    -2.2329889
C           3.2976158    -1.3915778     0.1950150
F           4.3996596    -1.6705492    -0.4970277
F           3.3000221    -2.0893258     1.3303724
F           3.2674768    -0.0832938     0.4737289
18
213_C7H5F3O2S_6-11-14-16 (105,) energy =   -1117.8305749
C           0.4749222     0.7490598    -0.5108282
H           1.1231119     1.3719491    -1.1178748
C          -0.7013398     1.2511897     0.0436926
H          -0.9752027     2.2889004    -0.1221240
C          -1.5277548     0.4202316     0.8050373
H          -2.4431336     0.8180944     1.2340019
C           0.8009334    -0.5903627    -0.2872849
C          -1.1897194    -0.9192475     1.0128882
H          -1.8411307    -1.5626697     1.5967396
C          -0.0164226    -1.4367398     0.4645556
H           0.2569702    -2.4781684     0.5982166
S           2.3021952    -1.2529491    -1.0062905
O           2.1835556    -2.7091038    -1.1162973
O           2.6982360    -0.4029913    -2.1331071
C           3.6125279    -0.9322359     0.3415158
F           4.7066963    -0.4491897    -0.2403450
F           3.9057452    -2.0728851     0.9616004
F           3.1566669    -0.0439108     1.2330608
18
213_C7H5F3O2S_6-11-14-16 (120,) energy =   -1117.8299831
C           0.4880624     0.7480492    -0.5314388
H           1.1387518     1.3552047    -1.1518600
C          -0.6909460     1.2643257     0.0049392
H          -0.9627917     2.2977526    -0.1884372
C          -1.5220439     0.4523138     0.7810082
H          -2.4405553     0.8592977     1.1944454
C           0.8121956    -0.5855021    -0.2743624
C          -1.1851046    -0.8818948     1.0230882
H          -1.8400454    -1.5110788     1.6184613
C          -0.0094957    -1.4128160     0.4937050
H           0.2623109    -2.4508479     0.6534728
S           2.3083024    -1.2678969    -0.9867137
O           2.1773404    -2.7258092    -1.0587273
O           2.7003088    -0.4494663    -2.1375377
C           3.6338201    -0.9379361     0.3513085
F           4.5928854    -0.1760013    -0.1659638
F           4.1481448    -2.0976654     0.7492685
F           3.0900124    -0.3111780     1.4024945
18
213_C7H5F3O2S_6-11-14-16 (135,) energy =   -1117.8305717
C           0.4917623     0.7377538    -0.5608999
H           1.1416700     1.3294186    -1.1970842
C          -0.6800542     1.2716291    -0.0252252
H          -0.9466127     2.3031826    -0.2351427
C          -1.5094204     0.4793621     0.7723064
H          -2.4214195     0.8995974     1.1869351
C           0.8103876    -0.5927004    -0.2813507
C          -1.1787668    -0.8527673     1.0351939
H          -1.8329174    -1.4657501     1.6480795
C          -0.0110519    -1.4012674     0.5070361
H           0.2570832    -2.4370161     0.6856655
S           2.3063168    -1.2883096    -0.9803964
O           2.1707657    -2.7474578    -1.0184192
O           2.7076960    -0.4992590    -2.1480270
C           3.6170540    -0.9469913     0.3616706
F           4.3992297     0.0605289    -0.0157574
F           4.3436663    -2.0461197     0.5381874
F           3.0172699    -0.6303790     1.5172776
18
213_C7H5F3O2S_6-11-14-16 (150,) energy =   -1117.8318521
C           0.5083916     0.7354765    -0.5766233
H           1.1604954     1.3146814    -1.2218538
C          -0.6614816     1.2800081    -0.0474999
H          -0.9251048     2.3091568    -0.2723107
C          -1.4922452     0.5013100     0.7618897
H          -2.4026784     0.9307803     1.1704320
C           0.8224899    -0.5920266    -0.2775698
C          -1.1655654    -0.8279349     1.0447351
H          -1.8201590    -1.4309151     1.6670078
C           0.0002147    -1.3870976     0.5242039
H           0.2666149    -2.4204858     0.7182021
S           2.3169542    -1.2995414    -0.9654837
O           2.1836788    -2.7594355    -0.9803389
O           2.7214922    -0.5298703    -2.1448268
C           3.6144819    -0.9419239     0.3684973
F           4.1836822     0.2425531     0.1520084
F           4.5332700    -1.9027661     0.3348675
F           3.0315968    -0.9367976     1.5749209
18
213_C7H5F3O2S_6-11-14-16 (165,) energy =   -1117.8329574
C           0.5240410     0.7132717    -0.5946696
H           1.1820182     1.2764194    -1.2479202
C          -0.6343242     1.2823236    -0.0665109
H          -0.8826905     2.3134229    -0.2997055
C          -1.4748060     0.5251660     0.7534452
H          -2.3768303     0.9733776     1.1605650
C           0.8173346    -0.6170717    -0.2848967
C          -1.1686558    -0.8060558     1.0490077
H          -1.8307887    -1.3913855     1.6800516
C          -0.0139540    -1.3894515     0.5298406
H           0.2369999    -2.4247777     0.7335597
S           2.2984985    -1.3551991    -0.9673756
O           2.1584186    -2.8142177    -0.9445619
O           2.7000593    -0.6195453    -2.1693719
C           3.5973523    -0.9630090     0.3412871
F           3.9382694     0.3255483     0.2798304
F           4.6655214    -1.7255575     0.1240181
F           3.1047657    -1.2298413     1.5570658
18
213_C7H5F3O2S_6-11-14-16 (180,) energy =   -1117.8333788
C           0.5367861     0.6973022    -0.6150708
H           1.1948783     1.2413755    -1.2839860
C          -0.6128275     1.2858533    -0.0898102
H          -0.8551886     2.3137527    -0.3425828
C          -1.4521896     0.5528913     0.7533801
H          -2.3472650     1.0167037     1.1583457
C           0.8221724    -0.6286320    -0.2799145
C          -1.1537518    -0.7737216     1.0752930
H          -1.8147713    -1.3404011     1.7242492
C          -0.0079736    -1.3768470     0.5584341
H           0.2359197    -2.4099801     0.7812128
S           2.2922079    -1.3958620    -0.9528711
O           2.1327244    -2.8526037    -0.9257494
O           2.7086163    -0.6707424    -2.1564687
C           3.5876697    -1.0001904     0.3527823
F           3.7092500     0.3243563     0.4829518
F           4.7525012    -1.5204334    -0.0251003
F           3.2223767    -1.5239673     1.5272762
