18
213_C7H5F3O2S_0-6-11-14 (-165,) energy =   -1117.8260509
C           0.1160045     0.2765632    -1.1326278
H           0.4483707     0.3326720    -2.1642681
C          -1.1404196     0.7516323    -0.7633486
H          -1.7867168     1.1973226    -1.5135970
C          -1.5665692     0.6502885     0.5629543
H          -2.5484745     1.0178985     0.8467237
C           0.9374710    -0.3018275    -0.1593028
C          -0.7327560     0.0802980     1.5255567
H          -1.0617146     0.0044391     2.5577037
C           0.5339130    -0.3894719     1.1748495
H           1.1793961    -0.8102611     1.9355237
S           2.5834800    -0.7566560    -0.7324347
O           2.4486123    -1.5717783    -1.9427756
O           3.4619928     0.4166464    -0.7063834
C           3.2631068    -1.9030333     0.6016561
F           2.3987370    -2.8898567     0.8603919
F           3.5023426    -1.2257430     1.7312617
F           4.4013020    -2.4148131     0.1450831
18
213_C7H5F3O2S_0-6-11-14 (-150,) energy =   -1117.8281616
C           0.1010261     0.1580189    -1.1451027
H           0.4151075     0.1277102    -2.1831299
C          -1.1699701     0.6080823    -0.7909058
H          -1.8525649     0.9504815    -1.5629546
C          -1.5635861     0.6129345     0.5487010
H          -2.5567939     0.9593075     0.8197024
C           0.9655543    -0.2862396    -0.1412285
C          -0.6841313     0.1777966     1.5424315
H          -0.9895054     0.1867621     2.5845181
C           0.5963580    -0.2606091     1.2063812
H           1.2838513    -0.5745454     1.9829446
S           2.6374723    -0.6901099    -0.6672236
O           2.5708822    -1.3161623    -1.9906523
O           3.5369258     0.4364946    -0.4013390
C           3.1809824    -2.0435162     0.5291789
F           2.2298396    -2.9760324     0.6382211
F           3.4294468    -1.5297798     1.7407859
F           4.2923134    -2.5909619     0.0477958
18
213_C7H5F3O2S_0-6-11-14 (-135,) energy =   -1117.8302272
C           0.1304114     0.0420512    -1.1524370
H           0.4291278    -0.0680197    -2.1893386
C          -1.1537343     0.4631197    -0.8068238
H          -1.8700685     0.6984496    -1.5883438
C          -1.5152751     0.5790197     0.5365477
H          -2.5178566     0.9035930     0.8002459
C           1.0363502    -0.2608661    -0.1342815
C          -0.5927847     0.2855740     1.5444794
H          -0.8740796     0.3835118     2.5887890
C           0.6988774    -0.1219224     1.2157004
H           1.4238147    -0.3281485     1.9950020
S           2.7211840    -0.6420579    -0.6270935
O           2.7149979    -1.0813260    -2.0253583
O           3.6299291     0.4049701    -0.1514088
C           3.1484369    -2.1656949     0.3983370
F           2.1693318    -3.0703441     0.3097197
F           3.3191099    -1.8313806     1.6837498
F           4.2788427    -2.6808644    -0.0758470
18
213_C7H5F3O2S_0-6-11-14 (-120,) energy =   -1117.8319618
C           0.0974031    -0.0366457    -1.1125802
H           0.3914730    -0.2210491    -2.1401265
C          -1.2050555     0.3381463    -0.7821734
H          -1.9470802     0.4536620    -1.5666052
C          -1.5510546     0.5651901     0.5512745
H          -2.5673508     0.8548168     0.8031177
C           1.0349222    -0.1803372    -0.0884335
C          -0.5968584     0.4312638     1.5640627
H          -0.8677136     0.6198415     2.5986284
C           0.7114092     0.0690887     1.2492881
H           1.4652902    -0.0115683     2.0244075
S           2.7303830    -0.5461819    -0.5438725
O           2.7902104    -0.8107265    -1.9841618
O           3.6318704     0.4041955     0.1134176
C           3.0530750    -2.1950018     0.3051918
F           2.1286919    -3.0864657    -0.0615801
F           3.0124366    -2.0446686     1.6350089
F           4.2588399    -2.6269269    -0.0538531
18
213_C7H5F3O2S_0-6-11-14 (-105,) energy =   -1117.8330527
C           0.1076299    -0.1343595    -1.0762791
H           0.3936312    -0.3915264    -2.0903619
C          -1.2069103     0.1983793    -0.7496144
H          -1.9692046     0.1990772    -1.5230068
C          -1.5388880     0.5336100     0.5651242
H          -2.5643282     0.7922239     0.8138273
C           1.0706848    -0.1250812    -0.0653900
C          -0.5601943     0.5474643     1.5629720
H          -0.8222473     0.8194462     2.5811051
C           0.7592116     0.2237335     1.2520552
H           1.5353391     0.2509003     2.0091649
S           2.7697632    -0.4961683    -0.4937306
O           2.8873938    -0.5937341    -1.9512031
O           3.6680428     0.3343814     0.3136379
C           2.9844547    -2.2453756     0.1645520
F           2.0816610    -3.0567650    -0.3943998
F           2.8175787    -2.2531738     1.4916329
F           4.2100666    -2.6688498    -0.1325139
18
213_C7H5F3O2S_0-6-11-14 (-90,) energy =   -1117.8333788
C           0.1331480    -0.2302023    -1.0157595
H           0.4231420    -0.5645362    -2.0060328
C          -1.1948520     0.0626389    -0.7084449
H          -1.9620296    -0.0542160    -1.4680562
C          -1.5351563     0.5105926     0.5706757
H          -2.5716491     0.7381070     0.8034712
C           1.1017165    -0.0640135    -0.0227529
C          -0.5530697     0.6744562     1.5511719
H          -0.8235686     1.0306603     2.5406947
C           0.7795888     0.3861999     1.2599836
H           1.5612284     0.5200778     1.9999868
S           2.8095912    -0.4351043    -0.4076488
O           3.0026297    -0.3733828    -1.8592395
O           3.6824308     0.2707324     0.5345941
C           2.9380358    -2.2562822     0.0460780
F           2.0758549    -2.9693885    -0.6849152
F           2.6526834    -2.4189228     1.3420820
F           4.1783896    -2.6733117    -0.1938009
18
213_C7H5F3O2S_0-6-11-14 (-75,) energy =   -1117.8329937
C           0.8845355     0.4574896     1.0581963
H           1.7802469     0.7945832     1.5686701
C          -0.2695490     1.2387227     1.0388939
H          -0.2710500     2.2083804     1.5277007
C          -1.4208625     0.7723099     0.3981665
H          -2.3174814     1.3856883     0.3889317
C           0.8589260    -0.7890101     0.4260251
C          -1.4288986    -0.4766943    -0.2274251
H          -2.3283323    -0.8350015    -0.7192284
C          -0.2803602    -1.2677719    -0.2242690
H          -0.2591551    -2.2414919    -0.7015230
S           2.3361302    -1.8005355     0.4244573
O           3.0385155    -1.6434605     1.7012295
O           2.0170152    -3.1144961    -0.1407761
C           3.4230247    -0.9379015    -0.8474489
F           3.6869232     0.3117886    -0.4505970
F           2.8024358    -0.8995026    -2.0294266
F           4.5617539    -1.6173614    -0.9620961
18
213_C7H5F3O2S_0-6-11-14 (-60,) energy =   -1117.8316724
C           0.9310207     0.4713666     0.8849679
H           1.8662771     0.8529605     1.2789114
C          -0.2193167     1.2580206     0.8999413
H          -0.1740322     2.2676162     1.2973099
C          -1.4253489     0.7482681     0.4108696
H          -2.3184007     1.3665643     0.4287699
C           0.8486137    -0.8266981     0.3710222
C          -1.4891611    -0.5487264    -0.1023541
H          -2.4277155    -0.9400081    -0.4835169
C          -0.3440805    -1.3446572    -0.1366506
H          -0.3627016    -2.3490672    -0.5453880
S           2.3067525    -1.8704050     0.3260404
O           2.9356392    -1.9022016     1.6496218
O           1.9929074    -3.0939174    -0.4171184
C           3.4991701    -0.8929942    -0.7571244
F           3.8732127     0.2337348    -0.1385337
F           2.9146689    -0.5805589    -1.9168567
F           4.5706040    -1.6474082    -0.9849933
18
213_C7H5F3O2S_0-6-11-14 (-45,) energy =   -1117.8297709
C           0.9124670     0.5648326     0.7249891
H           1.8634316     1.0024116     1.0063129
C          -0.2518252     1.3311294     0.7549130
H          -0.1977251     2.3745133     1.0509867
C          -1.4792888     0.7607375     0.4087846
H          -2.3822721     1.3638839     0.4381224
C           0.8229448    -0.7758885     0.3396562
C          -1.5498650    -0.5781280     0.0190206
H          -2.5037290    -1.0175562    -0.2572709
C          -0.3924015    -1.3544346    -0.0320103
H          -0.4203738    -2.3880436    -0.3594837
S           2.2760371    -1.8329385     0.2903888
O           2.7892342    -2.0512929     1.6460299
O           2.0110544    -2.9496237    -0.6210457
C           3.5803493    -0.7659693    -0.5584935
F           4.0015017     0.2039040     0.2633356
F           3.0797888    -0.2117110    -1.6660052
F           4.6068528    -1.5497747    -0.8743773
18
213_C7H5F3O2S_0-6-11-14 (-30,) energy =   -1117.8277052
C           0.9271959     0.5854013     0.5517047
H           1.8889724     1.0550223     0.7196692
C          -0.2412029     1.3441294     0.6245460
H          -0.1744151     2.4073378     0.8352093
C          -1.4858718     0.7430107     0.4284562
H          -2.3909166     1.3405555     0.4894672
C           0.8243246    -0.7809536     0.2795557
C          -1.5706836    -0.6217908     0.1446780
H          -2.5383214    -1.0864822    -0.0195011
C          -0.4122676    -1.3913754     0.0526219
H          -0.4597109    -2.4445938    -0.2030585
S           2.2622715    -1.8586510     0.1684632
O           2.6890383    -2.2790897     1.5064692
O           2.0270974    -2.8375179    -0.8964630
C           3.6436174    -0.7326289    -0.4521397
F           4.0353890     0.1091531     0.5129783
F           3.2337482    -0.0244744    -1.5085884
F           4.6665129    -1.5061702    -0.8016665
18
213_C7H5F3O2S_0-6-11-14 (-15,) energy =   -1117.8258293
C           0.9382733     0.5956950     0.4117480
H           1.9041562     1.0805740     0.4743932
C          -0.2263324     1.3568882     0.5274783
H          -0.1477261     2.4312637     0.6646937
C          -1.4791067     0.7462360     0.4670305
H          -2.3796295     1.3464783     0.5595467
C           0.8232440    -0.7846270     0.2359755
C          -1.5781417    -0.6347388     0.2810327
H          -2.5524776    -1.1108890     0.2246799
C          -0.4266094    -1.4076385     0.1518711
H          -0.4946436    -2.4767224    -0.0218898
S           2.2326130    -1.8950310     0.0640437
O           2.5402051    -2.5205151     1.3538202
O           2.0392607    -2.7066065    -1.1406736
C           3.7029428    -0.7709270    -0.2959262
F           3.9857720    -0.0064504     0.7663162
F           3.4517641     0.0177326    -1.3456540
F           4.7427594    -1.5534020    -0.5647559
18
213_C7H5F3O2S_0-6-11-14 (0,) energy =   -1117.8249507
C           0.9238294     0.6297931     0.2112547
H           1.8749673     1.1408763     0.1391506
C          -0.2430533     1.3718558     0.4054022
H          -0.1785547     2.4532278     0.4814723
C          -1.4792874     0.7336732     0.5007188
H          -2.3810531     1.3199454     0.6516671
C           0.8277250    -0.7594797     0.1153889
C          -1.5597227    -0.6577071     0.4024262
H          -2.5211477    -1.1570965     0.4760399
C          -0.4061855    -1.4133007     0.2088892
H          -0.4622928    -2.4946132     0.1314913
S           2.2337130    -1.8595350    -0.1357608
O           2.4243552    -2.6765370     1.0659237
O           2.1289430    -2.4807005    -1.4590482
C           3.7393169    -0.7302312    -0.2266190
F           3.8841165    -0.0410785     0.9110279
F           3.6255900     0.1292276    -1.2456729
F           4.8034550    -1.5029742    -0.4152431
18
213_C7H5F3O2S_0-6-11-14 (15,) energy =   -1117.8258292
C           0.9032090     0.6297579     0.0401102
H           1.8342800     1.1435559    -0.1626122
C          -0.2521425     1.3691643     0.2999161
H          -0.1979393     2.4537182     0.3097646
C          -1.4643369     0.7239164     0.5453655
H          -2.3581619     1.3078430     0.7450875
C           0.8200221    -0.7639308     0.0299457
C          -1.5297710    -0.6715133     0.5414570
H          -2.4703300    -1.1762245     0.7410895
C          -0.3841723    -1.4247061     0.2957202
H          -0.4196730    -2.5091075     0.3193980
S           2.2240597    -1.8505135    -0.2813920
O           2.2977966    -2.8347942     0.8017347
O           2.2320298    -2.2717977    -1.6856120
C           3.7458166    -0.7532816    -0.0930175
F           3.7403272    -0.1330236     1.0911752
F           3.7908418     0.1651203    -1.0662574
F           4.8136358    -1.5393816    -0.1795196
18
213_C7H5F3O2S_0-6-11-14 (30,) energy =   -1117.8277045
C           0.8440565     0.6269776    -0.1238802
H           1.7512368     1.1301477    -0.4362700
C          -0.2937490     1.3713064     0.1887748
H          -0.2556239     2.4549719     0.1296981
C          -1.4722641     0.7298628     0.5743254
H          -2.3543583     1.3169977     0.8131697
C           0.7784609    -0.7660238    -0.0418848
C          -1.5182772    -0.6631040     0.6629223
H          -2.4313547    -1.1618921     0.9739655
C          -0.3858724    -1.4206779     0.3692437
H          -0.3951659    -2.5009310     0.4685083
S           2.1784280    -1.8285208    -0.4319800
O           2.1774363    -2.9593708     0.5001306
O           2.2709499    -2.0371761    -1.8800596
C           3.6906031    -0.7893284     0.0085501
F           3.5531733    -0.2534487     1.2249304
F           3.8642446     0.1931390    -0.8849569
F           4.7499824    -1.5918557    -0.0097754
18
213_C7H5F3O2S_0-6-11-14 (45,) energy =   -1117.8297710
C           0.8072806     0.6435698    -0.2606237
H           1.6751930     1.1417522    -0.6771381
C          -0.3283302     1.3760182     0.0823368
H          -0.3336208     2.4525844    -0.0598537
C          -1.4522145     0.7298250     0.6030481
H          -2.3342305     1.3075571     0.8643819
C           0.7952658    -0.7410140    -0.0687230
C          -1.4446935    -0.6530595     0.7954731
H          -2.3163698    -1.1525235     1.2077926
C          -0.3111125    -1.3986403     0.4728811
H          -0.2734277    -2.4694482     0.6411678
S           2.2142819    -1.7564369    -0.5006045
O           2.1508112    -3.0010778     0.2706065
O           2.4102469    -1.7603736    -1.9533150
C           3.6834658    -0.7926158     0.1868519
F           3.4469662    -0.4204062     1.4477536
F           3.9178439     0.2981213    -0.5540141
F           4.7484904    -1.5875791     0.1464789
18
213_C7H5F3O2S_0-6-11-14 (60,) energy =   -1117.8316721
C           0.7798741     0.6041495    -0.4313763
H           1.5959493     1.0817138    -0.9618513
C          -0.3484610     1.3332109    -0.0601207
H          -0.4042299     2.3926139    -0.2920982
C          -1.4048768     0.7026187     0.6029927
H          -2.2820750     1.2774865     0.8861494
C           0.8278218    -0.7593810    -0.1242793
C          -1.3391535    -0.6589992     0.9055583
H          -2.1611398    -1.1447457     1.4229365
C          -0.2114504    -1.4001546     0.5524491
H          -0.1277093    -2.4549266     0.7905575
S           2.2644134    -1.7335293    -0.5770229
O           2.1396446    -3.0685023     0.0146600
O           2.5709127    -1.5358211    -1.9966383
C           3.6676226    -0.8817887     0.3479458
F           3.3675965    -0.7807254     1.6454060
F           3.8768476     0.3433113    -0.1494037
F           4.7694939    -1.6121689     0.1989186
18
213_C7H5F3O2S_0-6-11-14 (75,) energy =   -1117.8329933
C           0.6562918     0.6322865    -0.5922063
H           1.4041966     1.0856613    -1.2335966
C          -0.4627197     1.3506187    -0.1749466
H          -0.5847350     2.3847504    -0.4830442
C          -1.4273559     0.7393569     0.6311240
H          -2.2985662     1.3046586     0.9499594
C           0.7870475    -0.6990372    -0.1856528
C          -1.2818327    -0.5921909     1.0270622
H          -2.0367708    -1.0631363     1.6495796
C          -0.1639295    -1.3225882     0.6243752
H          -0.0264920    -2.3579762     0.9167018
S           2.2215507    -1.6365505    -0.7043155
O           2.0515761    -3.0362159    -0.3043272
O           2.5916484    -1.2478324    -2.0681085
C           3.5839693    -0.9430324     0.3933794
F           3.2726941    -1.1291977     1.6788202
F           3.7324176     0.3668779     0.1638709
F           4.7206141    -1.5747315     0.1121742
18
213_C7H5F3O2S_0-6-11-14 (90,) energy =   -1117.8333787
C           0.5781634     0.6349638    -0.7193388
H           1.2625771     1.0643827    -1.4430123
C          -0.5500940     1.3296598    -0.2855688
H          -0.7486443     2.3266651    -0.6673791
C          -1.4245941     0.7416236     0.6321410
H          -2.3026752     1.2878775     0.9650941
C           0.8063969    -0.6490053    -0.2181245
C          -1.1830158    -0.5451722     1.1204668
H          -1.8711626    -0.9994016     1.8271156
C          -0.0593371    -1.2534292     0.6967531
H           0.1408354    -2.2593116     1.0498255
S           2.2488602    -1.5515952    -0.7724427
O           2.0329291    -2.9855676    -0.5600945
O           2.6989604    -1.0033291    -2.0549411
C           3.5521854    -1.0418390     0.4849667
F           3.1600889    -1.3978368     1.7122349
F           3.7253845     0.2830592     0.4475873
F           4.6974497    -1.6502916     0.1879839
18
213_C7H5F3O2S_0-6-11-14 (105,) energy =   -1117.8330521
C           0.5070563     0.6326198    -0.8267408
H           1.1285295     1.0473407    -1.6129206
C          -0.6385585     1.2888392    -0.3769740
H          -0.9204406     2.2405400    -0.8174753
C          -1.4209872     0.7211528     0.6313184
H          -2.3124056     1.2369806     0.9770671
C           0.8471162    -0.5912608    -0.2471630
C          -1.0712219    -0.5098082     1.1937121
H          -1.6891306    -0.9516181     1.9697575
C           0.0668530    -1.1816238     0.7513645
H           0.3410232    -2.1477661     1.1609378
S           2.2852008    -1.4631379    -0.8634629
O           2.0258826    -2.9056827    -0.8430549
O           2.7923994    -0.7724793    -2.0522797
C           3.5548780    -1.1674962     0.4928014
F           3.1253263    -1.7048492     1.6398704
F           3.7391745     0.1445868     0.6667123
F           4.7036163    -1.7364686     0.1373063
18
213_C7H5F3O2S_0-6-11-14 (120,) energy =   -1117.8319619
C           0.4810538     0.6038434    -0.9184019
H           1.0537638     0.9935569    -1.7529488
C          -0.6976607     1.2162265    -0.4921473
H          -1.0591364     2.1025289    -1.0050413
C          -1.4091799     0.6898732     0.5877002
H          -2.3254380     1.1717273     0.9170581
C           0.9281558    -0.5337390    -0.2442862
C          -0.9557266    -0.4586061     1.2430390
H          -1.5187300    -0.8705786     2.0752280
C           0.2135240    -1.0891149     0.8221311
H           0.5592836    -1.9953455     1.3067612
S           2.3787378    -1.3741325    -0.8809280
O           2.0875010    -2.8010196    -1.0455831
O           2.9631729    -0.5674700    -1.9559652
C           3.5887184    -1.2842217     0.5583020
F           3.1272466    -1.9966460     1.5937410
F           3.7512491    -0.0147056     0.9399385
F           4.7553804    -1.7854794     0.1620568
18
213_C7H5F3O2S_0-6-11-14 (135,) energy =   -1117.8302272
C           0.4094172     0.5737170    -0.9830754
H           0.9350857     0.9237959    -1.8649160
C          -0.7873279     1.1591529    -0.5697312
H          -1.2124399     1.9755397    -1.1459741
C          -1.4326781     0.6986785     0.5793277
H          -2.3623943     1.1603816     0.8995489
C           0.9437395    -0.4713845    -0.2271926
C          -0.8923006    -0.3577254     1.3174960
H          -1.4004596    -0.7185645     2.2067900
C           0.2948355    -0.9635125     0.9096225
H           0.7043277    -1.7983046     1.4671516
S           2.3966359    -1.2964977    -0.8867207
O           2.0650716    -2.6770564    -1.2506898
O           3.0674681    -0.3914040    -1.8242310
C           3.5382692    -1.4434818     0.6068274
F           3.0760162    -2.3666377     1.4596257
F           3.6232572    -0.2697841     1.2393426
F           4.7417988    -1.8076731     0.1744371
18
213_C7H5F3O2S_0-6-11-14 (150,) energy =   -1117.8281615
C           0.3474831     0.5285087    -1.0432053
H           0.8215709     0.8384734    -1.9685370
C          -0.8725472     1.0714145    -0.6429197
H          -1.3668679     1.8040802    -1.2738488
C          -1.4518116     0.6784687     0.5652075
H          -2.3998247     1.1079620     0.8761685
C           0.9748886    -0.4078114    -0.2172618
C          -0.8191038    -0.2678041     1.3742080
H          -1.2733864    -0.5762293     2.3111000
C           0.3939116    -0.8322854     0.9807753
H           0.8691275    -1.5839819     1.5999530
S           2.4558146    -1.1778985    -0.8872205
O           2.1289901    -2.4858340    -1.4629148
O           3.1982273    -0.1724046    -1.6524856
C           3.5028877    -1.5605960     0.6344894
F           2.9851662    -2.5907369     1.3160038
F           3.5627433    -0.4934971     1.4369045
F           4.7247726    -1.8782721     0.2190653
18
213_C7H5F3O2S_0-6-11-14 (165,) energy =   -1117.8260509
C           0.2640483     0.4609619    -1.0892245
H           0.6854123     0.7190125    -2.0555335
C          -0.9731487     0.9656983    -0.6952641
H          -1.5283011     1.6109695    -1.3695464
C          -1.4927043     0.6466807     0.5614110
H          -2.4557715     1.0454596     0.8667951
C           0.9734681    -0.3637304    -0.2098279
C          -0.7790571    -0.1853389     1.4246948
H          -1.1835164    -0.4371414     2.4005631
C           0.4562459    -0.7093399     1.0405860
H           0.9900811    -1.3707514     1.7113220
S           2.4934803    -1.0567588    -0.8836117
O           2.1876514    -2.2501470    -1.6782197
O           3.2985703     0.0342107    -1.4396251
C           3.4405728    -1.6996459     0.6149106
F           2.8223179    -2.7614875     1.1461666
F           3.5498003    -0.7477214     1.5475395
F           4.6506549    -2.0570950     0.1980217
18
213_C7H5F3O2S_0-6-11-14 (180,) energy =   -1117.8249510
C           0.1979025     0.3506253    -1.1210622
H           0.5778221     0.5071773    -2.1257874
C          -1.0497353     0.8471206    -0.7525200
H          -1.6442348     1.3946223    -1.4777602
C          -1.5322506     0.6412530     0.5424207
H          -2.5057769     1.0299445     0.8267883
C           0.9564082    -0.3536452    -0.1788603
C          -0.7661073    -0.0628508     1.4707801
H          -1.1400307    -0.2238289     2.4775365
C           0.4873190    -0.5676987     1.1182437
H           1.0679967    -1.1125010     1.8511127
S           2.5476614    -0.9371410    -0.7934351
O           2.3211436    -1.9621183    -1.8161365
O           3.4115287     0.2157906    -1.0623440
C           3.3432881    -1.8359633     0.6588851
F           2.5881921    -2.8700656     1.0467652
F           3.5115677    -1.0058630     1.6946579
F           4.5269361    -2.2799277     0.2500077
