17
146_C5H12_0-4-14-10 (-165,) energy =    -197.7694422
C           0.9495315    -0.3726012    -1.1155498
H           0.1111378    -1.0555394    -1.2973990
H           1.3890185    -0.1165883    -2.0881679
H           0.5416788     0.5495359    -0.6828394
C           2.0043435    -1.0099122    -0.1979687
C           2.5556402    -2.2853006    -0.8563986
H           3.1049245    -2.0474897    -1.7773549
H           1.7380502    -2.9640890    -1.1271103
H           3.2342132    -2.8334398    -0.1946741
H           1.5157731    -1.3052738     0.7430577
C           4.3981988    -0.5406740     0.7391772
H           5.0830564     0.2709045     1.0109112
H           4.9236278    -1.1918929     0.0332720
H           4.2030453    -1.1241624     1.6482846
C           3.1051886     0.0230551     0.1383285
H           2.6814728     0.7777505     0.8147125
H           3.3647037     0.5622258    -0.7856162
17
146_C5H12_0-4-14-10 (-150,) energy =    -197.7666227
C           1.0055664    -0.3502325    -1.1907422
H           0.1716062    -1.0209764    -1.4300838
H           1.5349066    -0.1261847    -2.1256591
H           0.5809672     0.5899413    -0.8167337
C           1.9641764    -0.9843801    -0.1704508
C           2.5346823    -2.2866316    -0.7578141
H           3.1333294    -2.0900511    -1.6569426
H           1.7210184    -2.9621836    -1.0478969
H           3.1696055    -2.8214561    -0.0439395
H           1.3889124    -1.2560990     0.7266363
C           4.4243147    -0.5163097     0.6426118
H           5.0961834     0.2967432     0.9413649
H           4.8998502    -1.0488686    -0.1870832
H           4.3563599    -1.2117108     1.4888034
C           3.0531877     0.0450328     0.2458182
H           2.6586119     0.6672205     1.0597492
H           3.2130986     0.7325134    -0.5981539
17
146_C5H12_0-4-14-10 (-135,) energy =    -197.7639173
C           1.0745653    -1.6546205     0.3696550
H           0.3434098    -2.2254983    -0.2156036
H           0.6430651    -0.6657444     0.5722663
H           1.2026554    -2.1638810     1.3328681
C           2.4110192    -1.5162875    -0.3770538
C           2.1671414    -0.8309529    -1.7326766
H           1.7540715     0.1777416    -1.6067154
H           1.4446804    -1.4078819    -2.3223499
H           3.0833850    -0.7450535    -2.3261047
H           2.7823260    -2.5275676    -0.5949862
C           4.3158071     0.3041606    -0.1086558
H           5.0023138     0.7279789     0.6335805
H           3.6979074     1.1234815    -0.4905940
H           4.9249761    -0.0682336    -0.9408781
C           3.4667460    -0.8029298     0.5302856
H           4.1330851    -1.5603294     0.9624889
H           2.9404082    -0.3573079     1.3861155
17
146_C5H12_0-4-14-10 (-120,) energy =    -197.7630259
C           1.0581468    -1.5505169     0.3679391
H           0.2833629    -2.0699146    -0.2092314
H           0.7040419    -0.5279434     0.5557534
H           1.1474573    -2.0534331     1.3383028
C           2.4020741    -1.5366219    -0.3783156
C           2.2279026    -0.9256324    -1.7781806
H           1.8932645     0.1175173    -1.7288330
H           1.4723885    -1.4855207    -2.3421767
H           3.1567988    -0.9513322    -2.3582671
H           2.6926143    -2.5856961    -0.5304338
C           4.2056697     0.3809482    -0.0653954
H           4.9489951     0.7548277     0.6484088
H           3.4950787     1.1939702    -0.2527523
H           4.7291756     0.1750173    -1.0053446
C           3.5166541    -0.8694978     0.4985191
H           4.2919943    -1.6165041     0.7125851
H           3.0866813    -0.6098146     1.4749645
17
146_C5H12_0-4-14-10 (-105,) energy =    -197.7646053
C           1.0584019    -1.4416911     0.3674861
H           0.2449254    -1.9169783    -0.1942280
H           0.7793961    -0.3911290     0.5269923
H           1.1138599    -1.9226720     1.3509940
C           2.3973071    -1.5563876    -0.3794857
C           2.2837753    -1.0256998    -1.8159085
H           2.0261753     0.0397504    -1.8380075
H           1.4989916    -1.5654753    -2.3590095
H           3.2189218    -1.1548274    -2.3732563
H           2.6102625    -2.6323422    -0.4601568
C           4.0911697     0.4314680    -0.0113550
H           4.8885817     0.7763676     0.6571594
H           3.3081207     1.1997034    -0.0075840
H           4.5062976     0.3866932    -1.0234514
C           3.5644457    -0.9341638     0.4509863
H           4.4116684    -1.6333304     0.4408294
H           3.2547706    -0.8628933     1.5015958
17
146_C5H12_0-4-14-10 (-90,) energy =    -197.7672964
C           1.0814857    -1.3169821     0.3575409
H           0.2357259    -1.7647404    -0.1783952
H           0.8727970    -0.2436624     0.4612238
H           1.1080023    -1.7490047     1.3646550
C           2.4054339    -1.5653109    -0.3833502
C           2.3343626    -1.1064684    -1.8460998
H           2.1177129    -0.0346728    -1.9261035
H           1.5405371    -1.6430620    -2.3790837
H           3.2764659    -1.2969256    -2.3747186
H           2.5466597    -2.6566026    -0.3992830
C           3.9961428     0.4663999     0.0710500
H           4.8233105     0.7985240     0.7090120
H           3.1600327     1.1579680     0.2344815
H           4.3183873     0.5761641    -0.9695683
C           3.6165900    -0.9846594     0.3964183
H           4.4952388    -1.6120624     0.1900718
H           3.4250700    -1.0830830     1.4730006
17
146_C5H12_0-4-14-10 (-75,) energy =    -197.7692978
C           1.0990773    -1.2192198     0.3355819
H           0.2333940    -1.6864611    -0.1491800
H           0.9276290    -0.1352893     0.3351235
H           1.1188703    -1.5530315     1.3799150
C           2.4033102    -1.5877373    -0.3892498
C           2.3465396    -1.2107507    -1.8766657
H           2.1717340    -0.1373063    -2.0162226
H           1.5319497    -1.7432027    -2.3818227
H           3.2814593    -1.4664000    -2.3907514
H           2.4944676    -2.6834407    -0.3368591
C           3.8935814     0.4849061     0.1665737
H           4.7654807     0.7993366     0.7516281
H           3.0383402     1.0789758     0.5104746
H           4.0859223     0.7531312    -0.8778458
C           3.6504932    -1.0214858     0.3301591
H           4.5365176    -1.5552953    -0.0421921
H           3.5777334    -1.2649840     1.3990170
17
146_C5H12_0-4-14-10 (-60,) energy =    -197.7697349
C           1.1259865    -1.1428570     0.3055092
H           0.2485302    -1.6547087    -0.1073950
H           0.9706507    -0.0662029     0.1673097
H           1.1510669    -1.3409969     1.3842658
C           2.4133615    -1.6221772    -0.3829099
C           2.3655614    -1.3415509    -1.8933084
H           2.2733293    -0.2688472    -2.1024225
H           1.5055083    -1.8391622    -2.3572215
H           3.2714858    -1.7028903    -2.3952551
H           2.4639888    -2.7142564    -0.2571919
C           3.8164233     0.4752028     0.2971657
H           4.7573051     0.7761082     0.7720591
H           3.0020194     0.9465490     0.8585272
H           3.8117621     0.8976025    -0.7141997
C           3.6885949    -1.0538742     0.2808729
H           4.5640212    -1.4801406    -0.2289910
H           3.7325658    -1.4212810     1.3160362
17
146_C5H12_0-4-14-10 (-45,) energy =    -197.7686694
C           1.1473879    -1.0404691     0.2542162
H           0.2557576    -1.5640657    -0.1105726
H           1.0253616     0.0219653     0.0141517
H           1.1649308    -1.1362496     1.3472258
C           2.4173445    -1.6200961    -0.3875499
C           2.3736297    -1.4349502    -1.9139872
H           2.3824948    -0.3723654    -2.1883316
H           1.4643650    -1.8752458    -2.3408907
H           3.2350449    -1.9107817    -2.3979360
H           2.4302320    -2.7017895    -0.1899614
C           3.7493233     0.4813014     0.4207540
H           4.7314238     0.7993375     0.7891054
H           3.0029997     0.8065067     1.1530764
H           3.5592508     1.0258738    -0.5122897
C           3.7200046    -1.0394644     0.2176150
H           4.5658526    -1.3416941    -0.4147016
H           3.8902845    -1.5142691     1.1945690
17
146_C5H12_0-4-14-10 (-30,) energy =    -197.7662648
C           1.1679376    -0.9867523     0.2035428
H           0.2703318    -1.5141509    -0.1405024
H           1.0742148     0.0601288    -0.1063095
H           1.1650889    -1.0122270     1.3002852
C           2.4298192    -1.6367028    -0.3852352
C           2.3750067    -1.5668974    -1.9220917
H           2.4177247    -0.5266252    -2.2710570
H           1.4480444    -2.0064186    -2.3102377
H           3.2165553    -2.1038889    -2.3758007
H           2.4239273    -2.6993525    -0.1057247
C           3.7160564     0.4583670     0.5455138
H           4.7102019     0.7943568     0.8622550
H           3.0275117     0.6358574     1.3778729
H           3.4047109     1.1022741    -0.2865381
C           3.7574718    -1.0231710     0.1476383
H           4.5457307    -1.1795299    -0.6002636
H           4.0732583    -1.5920992     1.0335978
17
146_C5H12_0-4-14-10 (-15,) energy =    -197.7637931
C           1.1737986    -0.8917817     0.1423179
H           0.2712807    -1.4222436    -0.1838783
H           1.1036551     0.1366567    -0.2301075
H           1.1532720    -0.8527291     1.2376206
C           2.4286483    -1.6026482    -0.3897702
C           2.3682198    -1.6732683    -1.9257142
H           2.4123265    -0.6679729    -2.3657441
H           1.4399196    -2.1452303    -2.2703595
H           3.2082350    -2.2496287    -2.3315115
H           2.4019962    -2.6354959    -0.0164729
C           3.7193605     0.4407273     0.6859537
H           4.7263185     0.7754521     0.9612020
H           3.1040172     0.4705089     1.5911403
H           3.3122460     1.1777279    -0.0166096
C           3.7798921    -0.9677027     0.0787687
H           4.4789331    -0.9575210    -0.7674172
H           4.2373161    -1.6295628     0.8265580
17
146_C5H12_0-4-14-10 (0,) energy =    -197.7630397
C           1.1674324    -0.8177799     0.0643771
H           0.2666578    -1.3788139    -0.2117677
H           1.0893719     0.1737070    -0.3982900
H           1.1501692    -0.6816679     1.1509110
C           2.4228666    -1.5704821    -0.4056986
C           2.3683271    -1.8029094    -1.9238813
H           2.3934463    -0.8480194    -2.4657537
H           1.4516360    -2.3288060    -2.2175819
H           3.2219300    -2.4004108    -2.2660779
H           2.3870620    -2.5597381     0.0722907
C           3.7196292     0.3968998     0.8113137
H           4.7330221     0.7640751     1.0115370
H           3.2247178     0.2600176     1.7793377
H           3.1849828     1.1881513     0.2743704
C           3.7824036    -0.9063142     0.0028062
H           4.3605053    -0.7054759    -0.9093317
H           4.3771438    -1.6355889     0.5676196
17
146_C5H12_0-4-14-10 (15,) energy =    -197.7647038
C           1.1466207    -0.7378122    -0.0194898
H           0.2459564    -1.3142963    -0.2624282
H           1.0759980     0.2179076    -0.5552758
H           1.1222898    -0.5218592     1.0532943
C           2.4032162    -1.5269081    -0.4195251
C           2.3679624    -1.9089823    -1.9057656
H           2.3618027    -1.0117202    -2.5388128
H           1.4739029    -2.4958553    -2.1487798
H           3.2458428    -2.5046505    -2.1842724
H           2.3626286    -2.4646159     0.1553465
C           3.7048874     0.3362868     0.9298439
H           4.7112008     0.7411919     1.0885077
H           3.3177878     0.0321854     1.9100294
H           3.0748911     1.1533034     0.5633143
C           3.7554660    -0.8325463    -0.0625689
H           4.2006418    -0.4486478    -0.9921628
H           4.4576338    -1.5919857     0.3039419
17
146_C5H12_0-4-14-10 (30,) energy =    -197.7675593
C           1.1331477    -0.6642074    -0.0900696
H           0.2301118    -1.2434839    -0.3171452
H           1.0856434     0.2605796    -0.6811419
H           1.0919153    -0.3870117     0.9678647
C           2.3897758    -1.4835822    -0.4200160
C           2.3642793    -1.9944011    -1.8666894
H           2.3392428    -1.1565737    -2.5759672
H           1.4830815    -2.6189441    -2.0561696
H           3.2547846    -2.5935621    -2.0931067
H           2.3587976    -2.3660642     0.2387786
C           3.7133694     0.2694635     1.0186686
H           4.7131612     0.6954968     1.1619961
H           3.4126125    -0.1865797     1.9706083
H           3.0275454     1.0983406     0.8163059
C           3.7256391    -0.7488878    -0.1275210
H           4.0315141    -0.2146626    -1.0402016
H           4.5064778    -1.4998967     0.0497895
17
146_C5H12_0-4-14-10 (45,) energy =    -197.7700458
C           1.1251235    -0.6087967    -0.1632466
H           0.2245547    -1.1987990    -0.3715881
H           1.0968079     0.2759422    -0.8141015
H           1.0612879    -0.2631852     0.8734090
C           2.3892515    -1.4442405    -0.4140533
C           2.3757325    -2.0658296    -1.8172627
H           2.3492333    -1.2864045    -2.5902019
H           1.4985353    -2.7076264    -1.9619371
H           3.2702729    -2.6760137    -1.9922651
H           2.3753267    -2.2702299     0.3153877
C           3.7523009     0.1967256     1.0858975
H           4.7444904     0.6459837     1.2090567
H           3.5477167    -0.4006295     1.9838944
H           3.0233649     1.0131763     1.0570251
C           3.6997566    -0.6589126    -0.1848989
H           3.8683701    -0.0017915    -1.0521830
H           4.5353438    -1.3719728    -0.1833176
17
146_C5H12_0-4-14-10 (60,) energy =    -197.7711857
C           1.0855271    -0.5636505    -0.2647604
H           0.1925863    -1.1801522    -0.4229808
H           1.0636224     0.2469684    -1.0056805
H           1.0008139    -0.1103998     0.7285418
C           2.3639011    -1.4029554    -0.4106818
C           2.3872634    -2.1223831    -1.7674622
H           2.3949013    -1.3994368    -2.5939027
H           1.5059155    -2.7621569    -1.8952905
H           3.2781728    -2.7536683    -1.8703056
H           2.3510100    -2.1726487     0.3774203
C           3.7826785     0.1142558     1.1456947
H           4.7514209     0.6191303     1.2352209
H           3.7131689    -0.6153648     1.9625864
H           3.0048281     0.8683761     1.3072897
C           3.6465796    -0.5687468    -0.2201200
H           3.6954833     0.1919210    -1.0140049
H           4.5133637    -1.2258877    -0.3773863
17
146_C5H12_0-4-14-10 (75,) energy =    -197.7708189
C           1.0502962    -0.5197331    -0.3655540
H           0.1623144    -1.1594619    -0.4339154
H           1.0201012     0.1823737    -1.2091253
H           0.9650873     0.0649860     0.5575065
C           2.3399618    -1.3543621    -0.4029182
C           2.4080749    -2.1670700    -1.7049618
H           2.4668823    -1.5033383    -2.5778315
H           1.5199473    -2.7983308    -1.8292500
H           3.2894692    -2.8192298    -1.7238319
H           2.3139519    -2.0656991     0.4371106
C           3.8428798     0.0193060     1.1918042
H           4.7533132     0.6269394     1.2496621
H           3.9612081    -0.8236174     1.8837575
H           3.0142342     0.6355418     1.5599524
C           3.5986183    -0.4763531    -0.2382727
H           3.5324235     0.3791955    -0.9262387
H           4.4766486    -1.0546695    -0.5587539
17
146_C5H12_0-4-14-10 (90,) energy =    -197.7692767
C           1.0120305    -0.4793664    -0.4647057
H           0.1277883    -1.1277437    -0.4833580
H           0.9961062     0.1335279    -1.3751505
H           0.9094717     0.1967989     0.3929404
C           2.3090049    -1.3002301    -0.3898032
C           2.4315794    -2.2074229    -1.6239936
H           2.5241882    -1.6099777    -2.5406988
H           1.5511589    -2.8517630    -1.7368640
H           3.3151655    -2.8536039    -1.5584993
H           2.2569950    -1.9481815     0.4980172
C           3.9209262    -0.0810994     1.2143484
H           4.7818519     0.5947079     1.2756805
H           4.1803103    -1.0021896     1.7500325
H           3.0915569     0.3923024     1.7548102
C           3.5481373    -0.3832747    -0.2417528
H           3.3777733     0.5533290    -0.7907209
H           4.4117335    -0.8617014    -0.7242219
17
146_C5H12_0-4-14-10 (105,) energy =    -197.7675278
C           0.9553248    -0.4504967    -0.5693859
H           0.0840693    -1.1160814    -0.5963085
H           0.9763781     0.1106755    -1.5125697
H           0.7992616     0.2708185     0.2424001
C           2.2603592    -1.2387202    -0.3781171
C           2.4548019    -2.2373403    -1.5298635
H           2.5658271    -1.7124173    -2.4878686
H           1.5980918    -2.9162114    -1.6208995
H           3.3532844    -2.8482260    -1.3804091
H           2.1700150    -1.8204260     0.5511706
C           4.0021143    -0.1755796     1.2054843
H           4.8479687     0.5184584     1.2743539
H           4.3386078    -1.1505365     1.5786193
H           3.2206482     0.1854915     1.8861108
C           3.4821960    -0.2886524    -0.2324539
H           3.2220747     0.7092814    -0.6103642
H           4.3023741    -0.6443760    -0.8706243
17
146_C5H12_0-4-14-10 (120,) energy =    -197.7669479
C           0.9185047    -0.4177182    -0.6746218
H           0.0623521    -1.1005477    -0.7363959
H           0.9922108     0.1111848    -1.6340284
H           0.6978348     0.3278460     0.0989227
C           2.2189823    -1.1739916    -0.3641993
C           2.4929822    -2.2545053    -1.4210756
H           2.6247078    -1.8055327    -2.4143266
H           1.6650573    -2.9709091    -1.4867182
H           3.4051924    -2.8171816    -1.1878619
H           2.0742698    -1.6878315     0.5979781
C           4.0939343    -0.2782107     1.1729823
H           4.9411500     0.4136377     1.2476073
H           4.4699994    -1.2883314     1.3781356
H           3.3840591    -0.0233857     1.9696369
C           3.4265965    -0.2046082    -0.2052963
H           3.0982527     0.8278077    -0.3856002
H           4.1763215    -0.4167964    -0.9792566
17
146_C5H12_0-4-14-10 (135,) energy =    -197.7679979
C           0.8867521    -0.4007112    -0.7771320
H           0.0493158    -1.1017786    -0.8788307
H           1.0195883     0.0992637    -1.7459622
H           0.5988705     0.3639443    -0.0459662
C           2.1721282    -1.1219553    -0.3462857
C           2.5270566    -2.2659500    -1.3068128
H           2.6920777    -1.8854186    -2.3233870
H           1.7251207    -3.0123982    -1.3562504
H           3.4432284    -2.7808111    -0.9925176
H           1.9691313    -1.5721163     0.6377083
C           4.1681641    -0.3765137     1.1111197
H           5.0128657     0.3179107     1.1891700
H           4.5736764    -1.3957961     1.1430060
H           3.5422243    -0.2432826     2.0017692
C           3.3579093    -0.1350624    -0.1676932
H           2.9765522     0.8949167    -0.1452179
H           4.0190058    -0.1889804    -1.0435204
17
146_C5H12_0-4-14-10 (150,) energy =    -197.7698125
C           0.8794745    -0.3826729    -0.8688494
H           0.0535726    -1.0914989    -1.0044122
H           1.0847991     0.0759940    -1.8455357
H           0.5354441     0.4109774    -0.1952441
C           2.1294111    -1.0795682    -0.3121665
C           2.5469677    -2.2677429    -1.1906787
H           2.7728836    -1.9352860    -2.2124476
H           1.7493974    -3.0176923    -1.2533310
H           3.4411410    -2.7662782    -0.7980669
H           1.8612334    -1.4770417     0.6794033
C           4.2395121    -0.4589750     1.0380468
H           5.0612286     0.2605800     1.1307465
H           4.6857771    -1.4497103     0.8870874
H           3.7048322    -0.4803921     1.9953513
C           3.2930186    -0.0811608    -0.1072306
H           2.8785982     0.9144080     0.1041217
H           3.8567262     0.0206118    -1.0456001
17
146_C5H12_0-4-14-10 (165,) energy =    -197.7710489
C           0.8903194    -0.3832548    -0.9633761
H           0.0667452    -1.0907853    -1.1173648
H           1.1729874     0.0143906    -1.9472835
H           0.5085031     0.4523623    -0.3647807
C           2.0876577    -1.0592623    -0.2790916
C           2.5551554    -2.2827223    -1.0816807
H           2.8945400    -1.9844006    -2.0825939
H           1.7402490    -3.0051724    -1.2097214
H           3.3839756    -2.8043950    -0.5905385
H           1.7489417    -1.4130053     0.7076729
C           4.3041488    -0.5173120     0.9440546
H           5.0641623     0.2577724     1.0958071
H           4.8207901    -1.4166937     0.5898906
H           3.8671425    -0.7500228     1.9230964
C           3.2268931    -0.0469602    -0.0401141
H           2.7907341     0.8869973     0.3413909
H           3.6891324     0.2073347    -1.0055308
17
146_C5H12_0-4-14-10 (180,) energy =    -197.7710294
C           0.9079777    -0.3778913    -1.0394627
H           0.0755055    -1.0738356    -1.1976379
H           1.2640558    -0.0561412    -2.0269351
H           0.5125904     0.5064089    -0.5248626
C           2.0420024    -1.0346909    -0.2381613
C           2.5535570    -2.2856925    -0.9691383
H           3.0200690    -2.0157225    -1.9262359
H           1.7290825    -2.9752000    -1.1865521
H           3.2950523    -2.8348728    -0.3794419
H           1.6324847    -1.3555174     0.7326451
C           4.3558569    -0.5479012     0.8388568
H           5.0623457     0.2570105     1.0720253
H           4.9059688    -1.3159708     0.2848470
H           4.0337884    -0.9905891     1.7901858
C           3.1611537    -0.0112295     0.0421008
H           2.7239843     0.8416777     0.5798067
H           3.5199650     0.3889136    -0.9184094
