23
375_C10H12O_1-0-10-17 (-165,) energy =    -463.5181097
C           0.9393411    -0.0511920    -0.3061746
C          -0.2497005    -0.2205358    -1.2612009
H          -1.1635848    -0.4264806    -0.6932450
H          -0.0737493    -1.0569176    -1.9458701
H          -0.4083636     0.6727412    -1.8701324
H           0.7357043     0.7829569     0.3845058
C           1.1141133    -1.3394650     0.5282369
H           1.3465169    -2.1898189    -0.1241882
H           0.1782630    -1.5698339     1.0493741
H           1.9075073    -1.2691872     1.2749251
C           2.2057963     0.3152013    -1.1038436
C           6.1650917     0.0914957     0.5777527
H           7.1714038     0.0405034     0.9849375
C           5.0910780     0.4151014     1.4090407
H           5.2602642     0.6282407     2.4610182
C           3.7975939     0.4668173     0.8897823
H           2.9714992     0.7334456     1.5427503
C           3.5660405     0.2107595    -0.4704090
C           4.6568882    -0.0835588    -1.3025400
H           4.4712509    -0.2490497    -2.3588891
C           5.9451596    -0.1586021    -0.7796151
H           6.7802266    -0.4037199    -1.4303344
O           2.1233868     0.6237873    -2.2835513
23
375_C10H12O_1-0-10-17 (-150,) energy =    -463.5149923
C           0.9107776    -0.0202193    -0.2918904
C          -0.1554148    -0.3598687    -1.3468989
H          -1.1031393    -0.6123292    -0.8591507
H           0.1600417    -1.2228970    -1.9445731
H          -0.3197250     0.4757700    -2.0299776
H           0.5450616     0.8190137     0.3217231
C           1.1300778    -1.2391806     0.6257596
H           1.5764471    -2.0707904     0.0675275
H           0.1644848    -1.5830632     1.0130994
H           1.7761838    -1.0326950     1.4810025
C           2.1864555     0.4825564    -1.0050523
C           6.1738877    -0.0192069     0.5448889
H           7.1875655    -0.1375041     0.9183020
C           5.1433337     0.3259647     1.4211075
H           5.3541746     0.4910668     2.4742116
C           3.8387687     0.4610656     0.9461838
H           3.0481358     0.7472279     1.6336536
C           3.5545479     0.2722131    -0.4145693
C           4.6041681    -0.0380845    -1.2926655
H           4.3833610    -0.1463687    -2.3498104
C           5.9014882    -0.2020648    -0.8134565
H           6.7030277    -0.4615929    -1.4997731
O           2.1008561     0.9996209    -2.1087257
23
375_C10H12O_1-0-10-17 (-135,) energy =    -463.5128793
C           0.9122972     0.0240088    -0.3378445
C          -0.0598901    -0.9345392    -1.0506107
H          -1.0636381    -0.8503851    -0.6196226
H           0.2655153    -1.9766237    -0.9403878
H          -0.1121564    -0.7015645    -2.1162649
H           0.5116283     1.0406673    -0.4757204
C           0.9575626    -0.2334123     1.1739453
H           1.1689643    -1.2826341     1.4090912
H          -0.0231609    -0.0034314     1.6059390
H           1.6997869     0.3889206     1.6830629
C           2.2358992     0.1126989    -1.1340582
C           6.2411973    -0.0172187     0.4546435
H           7.2600269    -0.0412583     0.8321265
C           5.2746899    -0.8634015     0.9989561
H           5.5405494    -1.5576071     1.7915585
C           3.9613155    -0.8232355     0.5287352
H           3.2290232    -1.4985500     0.9544739
C           3.6033737     0.0509330    -0.5086588
C           4.5939871     0.8750287    -1.0703652
H           4.3191873     1.5259191    -1.8939241
C           5.8969261     0.8545227    -0.5822572
H           6.6476209     1.5101420    -1.0152543
O           2.1560631     0.3443839    -2.3324288
23
375_C10H12O_1-0-10-17 (-120,) energy =    -463.5136243
C           0.8949074     0.0540050    -0.3560220
C           0.0794328    -1.0845586    -1.0008105
H          -0.9330604    -1.1122305    -0.5826870
H           0.5440247    -2.0612997    -0.8153767
H           0.0079630    -0.9363346    -2.0814055
H           0.3635243     0.9868019    -0.5921311
C           0.9471611    -0.0625080     1.1737389
H           1.2354467    -1.0637919     1.5101202
H          -0.0501630     0.1349544     1.5833390
H           1.6399340     0.6576229     1.6210419
C           2.2139824     0.2492964    -1.1362849
C           6.2098157    -0.1255368     0.4295379
H           7.2263612    -0.2108189     0.8043144
C           5.2159183    -0.9811165     0.9062900
H           5.4581077    -1.7426466     1.6426292
C           3.9063142    -0.8628466     0.4395450
H           3.1500388    -1.5454752     0.8093881
C           3.5798917     0.1008274    -0.5262593
C           4.5961428     0.9353054    -1.0218566
H           4.3428510     1.6574548    -1.7911779
C           5.8963872     0.8350998    -0.5363404
H           6.6689108     1.4983451    -0.9160405
O           2.1275348     0.6110054    -2.3016233
23
375_C10H12O_1-0-10-17 (-105,) energy =    -463.5148650
C           0.8787065     0.0735888    -0.3737729
C           0.2338994    -1.2196664    -0.9141462
H          -0.7719501    -1.3445313    -0.4972545
H           0.8182082    -2.1085244    -0.6448745
H           0.1539632    -1.1796431    -2.0044574
H           0.2351477     0.8983455    -0.7064542
C           0.9306963     0.1198383     1.1602465
H           1.3828300    -0.7734969     1.6009081
H          -0.0895691     0.1935649     1.5542148
H           1.4905160     0.9894264     1.5213100
C           2.1847970     0.3648840    -1.1391720
C           6.1632189    -0.2369226     0.3968559
H           7.1751826    -0.3782853     0.7670771
C           5.1478420    -1.1110151     0.7877412
H           5.3689806    -1.9420912     1.4519370
C           3.8449978    -0.9210168     0.3263213
H           3.0705189    -1.6191292     0.6250701
C           3.5468491     0.1350779    -0.5479184
C           4.5832710     0.9890085    -0.9593268
H           4.3503357     1.7846896    -1.6595831
C           5.8775665     0.8151601    -0.4780332
H           6.6672422     1.4930385    -0.7906432
O           2.0972440     0.8491447    -2.2587364
23
375_C10H12O_1-0-10-17 (-90,) energy =    -463.5162610
C           0.8647854     0.0823241    -0.3787391
C           0.4037882    -1.3085243    -0.8637366
H          -0.5975081    -1.5271465    -0.4750862
H           1.0720528    -2.1094838    -0.5267919
H           0.3595745    -1.3413020    -1.9571053
H           0.1404707     0.8033481    -0.7762182
C           0.8596393     0.2165294     1.1527224
H           1.4597939    -0.5478666     1.6538119
H          -0.1682265     0.1212648     1.5217502
H           1.2364928     1.1954650     1.4695552
C           2.1638823     0.5054635    -1.0875565
C           6.1442646    -0.3295055     0.3390987
H           7.1560854    -0.5259785     0.6836990
C           5.1001064    -1.1727185     0.7213890
H           5.2976981    -2.0332199     1.3548311
C           3.7983056    -0.9148227     0.2909005
H           3.0027919    -1.5896521     0.5859051
C           3.5270964     0.1823475    -0.5411742
C           4.5914215     1.0087793    -0.9389857
H           4.3757681     1.8402553    -1.6018876
C           5.8864322     0.7638581    -0.4928895
H           6.6975329     1.4198217    -0.7973788
O           2.0755930     1.1590586    -2.1179216
23
375_C10H12O_1-0-10-17 (-75,) energy =    -463.5169881
C           0.8450857     0.0874753    -0.3595406
C           0.5548461    -1.3504838    -0.8367594
H          -0.4528275    -1.6468884    -0.5229208
H           1.2569969    -2.0845014    -0.4289115
H           0.5983390    -1.4151949    -1.9293714
H           0.0809850     0.7296806    -0.8119017
C           0.7313663     0.2475147     1.1678586
H           1.4012705    -0.4165804     1.7212127
H          -0.2936797     0.0198556     1.4829093
H           0.9524269     1.2757379     1.4755248
C           2.1428552     0.6535825    -0.9621922
C           6.1427804    -0.4267256     0.2448499
H           7.1591133    -0.6811478     0.5339075
C           5.0714156    -1.1885628     0.7120401
H           5.2504473    -2.0409498     1.3617520
C           3.7653211    -0.8601902     0.3472309
H           2.9516819    -1.4712030     0.7179131
C           3.5119655     0.2320814    -0.4976821
C           4.6027118     0.9837575    -0.9688127
H           4.3976897     1.8193164    -1.6294852
C           5.9041948     0.6627854    -0.5979693
H           6.7349639     1.2586258    -0.9663623
O           2.0490237     1.4927770    -1.8482402
23
375_C10H12O_1-0-10-17 (-60,) energy =    -463.5170735
C           1.0542380    -1.0447280     0.1737802
C           0.7400459    -0.0225257     1.2830618
H          -0.3462305     0.0655062     1.4018905
H           1.1305890     0.9765802     1.0701937
H           1.1543611    -0.3447665     2.2449390
H           0.5744152    -1.9882198     0.4568138
C           0.4723667    -0.6387166    -1.1956783
H           0.8614734     0.3171030    -1.5593594
H          -0.6170586    -0.5442215    -1.1182698
H           0.6885290    -1.3990738    -1.9542005
C           2.5383569    -1.4437549     0.0972967
C           5.8308433     1.2515533    -0.6294234
H           6.6759142     1.9109362    -0.8091164
C           4.5284959     1.7440926    -0.7166862
H           4.3555268     2.7871871    -0.9672146
C           3.4419173     0.9004984    -0.4831386
H           2.4415011     1.3072036    -0.5608118
C           3.6419274    -0.4516949    -0.1623972
C           4.9603162    -0.9342952    -0.0840015
H           5.1043374    -1.9816244     0.1587368
C           6.0440769    -0.0929897    -0.3115925
H           7.0561708    -0.4827425    -0.2430502
O           2.8269201    -2.6217291     0.2633911
23
375_C10H12O_1-0-10-17 (-45,) energy =    -463.5166033
C           1.0602014    -1.0583167     0.1724041
C           0.8631824     0.0146635     1.2574492
H          -0.1994293     0.0753927     1.5201914
H           1.1800389     1.0108413     0.9374986
H           1.4165427    -0.2331717     2.1703184
H           0.6177290    -1.9920558     0.5375096
C           0.3332187    -0.7025742    -1.1423698
H           0.7058597     0.2256445    -1.5889217
H          -0.7380917    -0.5709406    -0.9511080
H           0.4490955    -1.5030205    -1.8806797
C           2.5207640    -1.4631858    -0.0935684
C           5.8320160     1.2693672    -0.5040070
H           6.6815720     1.9393962    -0.6063677
C           4.5377537     1.7435519    -0.7208302
H           4.3766787     2.7808357    -1.0016183
C           3.4447626     0.8879826    -0.5791233
H           2.4495309     1.2743093    -0.7647195
C           3.6330645    -0.4588288    -0.2313251
C           4.9435511    -0.9276572    -0.0362574
H           5.0806963    -1.9747825     0.2122091
C           6.0324177    -0.0706301    -0.1601024
H           7.0386999    -0.4458284     0.0057588
O           2.7858079    -2.6555292    -0.1673308
23
375_C10H12O_1-0-10-17 (-30,) energy =    -463.5154285
C           1.0828021    -1.0647331     0.1640382
C           0.9319736     0.0721202     1.1870049
H          -0.0901945     0.0691653     1.5832106
H           1.1101932     1.0605806     0.7553593
H           1.6162746    -0.0495065     2.0341181
H           0.7149425    -1.9908813     0.6212980
C           0.2301374    -0.8157312    -1.0993249
H           0.5502983     0.0864188    -1.6344864
H          -0.8226858    -0.6828726    -0.8249137
H           0.3014750    -1.6636457    -1.7876132
C           2.5184104    -1.4395528    -0.2491309
C           5.8679859     1.2680424    -0.3667911
H           6.7267497     1.9333115    -0.3990885
C           4.5924255     1.7595063    -0.6479363
H           4.4564837     2.8046763    -0.9123065
C           3.4868647     0.9103646    -0.5918719
H           2.5053671     1.3047915    -0.8309858
C           3.6468059    -0.4463954    -0.2713835
C           4.9395080    -0.9355432    -0.0208515
H           5.0582120    -1.9919520     0.1970522
C           6.0391205    -0.0830404    -0.0521020
H           7.0315888    -0.4713532     0.1601865
O           2.7512114    -2.6078150    -0.5267341
23
375_C10H12O_1-0-10-17 (-15,) energy =    -463.5139875
C           1.0827528    -1.0234312     0.1723253
C           0.9083075     0.2028993     1.0802763
H          -0.0520521     0.1295451     1.6036651
H           0.8946565     1.1431458     0.5206797
H           1.6957727     0.2732087     1.8380876
H           0.8327360    -1.9167685     0.7594793
C           0.1079119    -0.9857362    -1.0236616
H           0.3073155    -0.1233173    -1.6720312
H          -0.9261959    -0.9047812    -0.6700744
H           0.2012909    -1.8955742    -1.6229752
C           2.4987249    -1.3586803    -0.3424804
C           5.9314322     1.2431603    -0.2662764
H           6.8111036     1.8812038    -0.2530056
C           4.6714251     1.7953153    -0.5004487
H           4.5682288     2.8614631    -0.6833201
C           3.5385840     0.9807990    -0.5012390
H           2.5694017     1.4234357    -0.7012977
C           3.6559744    -0.4007211    -0.2874780
C           4.9334509    -0.9496112    -0.0852943
H           5.0202370    -2.0230708     0.0479009
C           6.0599567    -0.1329641    -0.0575263
H           7.0401355    -0.5683214     0.1172638
O           2.6919984    -2.4913053    -0.7619576
23
375_C10H12O_1-0-10-17 (0,) energy =    -463.5130705
C           1.0949740    -0.9863675     0.1508789
C           0.8637799     0.3152042     0.9305523
H          -0.0636121     0.2271963     1.5081906
H           0.7429683     1.1791730     0.2680469
H           1.6740137     0.5331969     1.6334124
H           0.9851474    -1.8177803     0.8629724
C           0.0233269    -1.1844382    -0.9389700
H           0.0691013    -0.3807857    -1.6845824
H          -0.9788191    -1.1726152    -0.4961006
H           0.1706510    -2.1380751    -1.4511476
C           2.4927560    -1.2723800    -0.4469935
C           6.0022117     1.2169720    -0.1827749
H           6.9019766     1.8237412    -0.1245729
C           4.7575860     1.8249196    -0.3496407
H           4.6861201     2.9058135    -0.4352759
C           3.5989734     1.0491255    -0.4075555
H           2.6437591     1.5392511    -0.5522899
C           3.6738903    -0.3491369    -0.3199057
C           4.9368348    -0.9512901    -0.1841447
H           4.9918227    -2.0343815    -0.1485691
C           6.0888537    -0.1755380    -0.0989202
H           7.0563676    -0.6549410     0.0232551
O           2.6599515    -2.3607504    -0.9798428
23
375_C10H12O_1-0-10-17 (15,) energy =    -463.5133821
C           1.0227314    -0.8964038     0.0908962
C           0.7386149     0.5972055    -0.1367120
H          -0.3425027     0.7715796    -0.0949090
H           1.0868017     0.9236784    -1.1239155
H           1.2036043     1.2449711     0.6085865
H           0.7662735    -1.1308292     1.1377596
C           0.1291192    -1.7759623    -0.8012188
H           0.3010715    -1.5541599    -1.8616392
H          -0.9270740    -1.5842316    -0.5836846
H           0.3403484    -2.8342374    -0.6386920
C           2.4933106    -1.3492498    -0.0645319
C           5.9011205     1.2868183    -0.1724179
H           6.7735914     1.9337532    -0.2076666
C           4.9148922     1.4949825     0.7930071
H           5.0240383     2.2942562     1.5210300
C           3.7855458     0.6765900     0.8279379
H           3.0377293     0.8366777     1.5982107
C           3.6399538    -0.3735640    -0.0904908
C           4.6567967    -0.5984338    -1.0319020
H           4.5586695    -1.4356889    -1.7156318
C           5.7691259     0.2376843    -1.0858085
H           6.5397505     0.0647485    -1.8321736
O           2.7362439    -2.5334140    -0.2428967
23
375_C10H12O_1-0-10-17 (30,) energy =    -463.5159794
C           1.0418719    -0.8895594     0.0431129
C           0.7453069     0.5764246    -0.3236411
H          -0.3080772     0.7980444    -0.1186873
H           0.9171689     0.7576509    -1.3919258
H           1.3526809     1.2913072     0.2332858
H           0.9146324    -0.9795252     1.1366789
C           0.0490600    -1.8551744    -0.6167358
H           0.1111546    -1.7889651    -1.7092628
H          -0.9749687    -1.6058446    -0.3182753
H           0.2594121    -2.8888267    -0.3358490
C           2.4895836    -1.3482913    -0.2289536
C           5.9047983     1.2719433    -0.0554739
H           6.7786579     1.9169412    -0.0188416
C           4.8921763     1.4128322     0.8952047
H           4.9821602     2.1573153     1.6815651
C           3.7625668     0.5963763     0.8390491
H           2.9896760     0.7025249     1.5948470
C           3.6423300    -0.3833692    -0.1579711
C           4.6826791    -0.5403956    -1.0863160
H           4.5986878    -1.3244932    -1.8319906
C           5.7973278     0.2936928    -1.0474986
H           6.5878396     0.1751001    -1.7836313
O           2.7101489    -2.4990469    -0.5760746
23
375_C10H12O_1-0-10-17 (45,) energy =    -463.5190370
C           1.0702907    -0.8615609     0.0067961
C           0.7125814     0.5705048    -0.4410307
H          -0.2955811     0.8234547    -0.0945186
H           0.7137517     0.6470032    -1.5354349
H           1.4029776     1.3230012    -0.0556248
H           1.0748530    -0.8600625     1.1108203
C           0.0291276    -1.8834546    -0.4595329
H          -0.0170839    -1.9199135    -1.5533507
H          -0.9625798    -1.6110358    -0.0820065
H           0.2751027    -2.8889320    -0.1097787
C           2.4848584    -1.2946126    -0.4142121
C           5.9290563     1.2497766     0.0594563
H           6.8090996     1.8777559     0.1701109
C           4.8702003     1.3653639     0.9619991
H           4.9284093     2.0745671     1.7831824
C           3.7351787     0.5685355     0.8125273
H           2.9243045     0.6576919     1.5296544
C           3.6526035    -0.3634634    -0.2334515
C           4.7349549    -0.4909243    -1.1175705
H           4.6741164    -1.2351891    -1.9050017
C           5.8586206     0.3198330    -0.9814959
H           6.6840903     0.2228919    -1.6815264
O           2.6645292    -2.3753188    -0.9564372
23
375_C10H12O_1-0-10-17 (60,) energy =    -463.5213893
C           1.0771004    -0.8284486    -0.0142924
C           0.6267834     0.5607440    -0.5179448
H          -0.3412808     0.8209976    -0.0757039
H           0.5036404     0.5533566    -1.6076522
H           1.3400094     1.3498800    -0.2669667
H           1.1946883    -0.7583154     1.0785065
C           0.0342263    -1.9064484    -0.3206507
H          -0.1175021    -2.0054733    -1.4000142
H          -0.9242894    -1.6478035     0.1428759
H           0.3503806    -2.8839604     0.0546243
C           2.4473454    -1.2096523    -0.5911763
C           5.9671180     1.1678432     0.1381718
H           6.8649464     1.7553559     0.3109981
C           4.8702192     1.3017022     0.9911165
H           4.9144558     1.9871141     1.8330997
C           3.7144109     0.5539309     0.7658350
H           2.8735416     0.6621977     1.4439562
C           3.6456466    -0.3439874    -0.3108170
C           4.7619679    -0.4822549    -1.1510962
H           4.7033148    -1.1936362    -1.9683411
C           5.9103370     0.2735585    -0.9347348
H           6.7640327     0.1643574    -1.5981828
O           2.5647824    -2.1846943    -1.3193975
23
375_C10H12O_1-0-10-17 (75,) energy =    -463.5223948
C           1.0892143    -0.7846800    -0.0334079
C           0.4990253     0.5425404    -0.5613955
H          -0.4396406     0.7691596    -0.0436373
H           0.2827962     0.4628305    -1.6330009
H           1.1808479     1.3864322    -0.4167642
H           1.2922008    -0.6623840     1.0389973
C           0.1043646    -1.9437830    -0.2164355
H          -0.1160837    -2.1014524    -1.2759794
H          -0.8332133    -1.7306943     0.3091535
H           0.5142817    -2.8799857     0.1759479
C           2.4156833    -1.0735006    -0.7462803
C           6.0277034     1.0735782     0.2168840
H           6.9482804     1.6040169     0.4457675
C           4.8935387     1.2687402     1.0064674
H           4.9290733     1.9494541     1.8526501
C           3.7111614     0.5889147     0.7130613
H           2.8415638     0.7510113     1.3416044
C           3.6493046    -0.2964421    -0.3746290
C           4.7991114    -0.4867878    -1.1589340
H           4.7397443    -1.1780239    -1.9931444
C           5.9774426     0.1929382    -0.8678642
H           6.8590558     0.0377096    -1.4839166
O           2.4676776    -1.9057714    -1.6408511
23
375_C10H12O_1-0-10-17 (90,) energy =    -463.5223081
C           1.0845791    -0.7125873    -0.0519649
C           0.3356895     0.5142516    -0.6172228
H          -0.5941097     0.6808376    -0.0618774
H           0.0811701     0.3492355    -1.6699728
H           0.9380414     1.4274238    -0.5534238
H           1.3295845    -0.5163063     0.9980175
C           0.2154027    -1.9746718    -0.1248081
H          -0.0120309    -2.2233493    -1.1648578
H          -0.7251991    -1.8204018     0.4156722
H           0.7267636    -2.8357428     0.3192244
C           2.3798630    -0.9042475    -0.8511925
C           6.0870761     0.9717503     0.2923771
H           7.0312071     1.4355024     0.5658054
C           4.9395993     1.2273824     1.0442968
H           4.9871856     1.8921339     1.9024810
C           3.7278789     0.6287556     0.6979325
H           2.8469765     0.8423136     1.2943743
C           3.6487186    -0.2295476    -0.4099849
C           4.8101889    -0.4731696    -1.1624661
H           4.7334828    -1.1347902    -2.0189403
C           6.0195254     0.1184497    -0.8133727
H           6.9111106    -0.0820166    -1.4013936
O           2.3737683    -1.5875491    -1.8658461
23
375_C10H12O_1-0-10-17 (105,) energy =    -463.5218056
C           1.0779794    -0.6069134    -0.0878108
C           0.1785455     0.4662791    -0.7346688
H          -0.7561342     0.5700306    -0.1722514
H          -0.0649373     0.1813601    -1.7634737
H           0.6690998     1.4463595    -0.7603807
H           1.3165688    -0.2946429     0.9336096
C           0.3625859    -1.9660248    -0.0261232
H           0.1534719    -2.3289934    -1.0362992
H          -0.5833248    -1.8742947     0.5193188
H           0.9760822    -2.7181114     0.4828775
C           2.3617976    -0.7345287    -0.9187648
C           6.1572852     0.8653282     0.3457078
H           7.1234529     1.2607004     0.6480522
C           5.0221552     1.1353073     1.1108277
H           5.1008011     1.7439986     2.0074625
C           3.7817782     0.6233936     0.7281865
H           2.9118364     0.8497891     1.3355620
C           3.6610606    -0.1598497    -0.4303697
C           4.8113615    -0.4164075    -1.1967797
H           4.7025370    -1.0167506    -2.0938905
C           6.0489417     0.0865088    -0.8108398
H           6.9309493    -0.1245346    -1.4095025
O           2.3163796    -1.3046573    -2.0008180
23
375_C10H12O_1-0-10-17 (120,) energy =    -463.5215966
C           1.0560967    -0.4328115    -0.1334721
C           0.0586467     0.4213808    -0.9372546
H          -0.8898918     0.5107143    -0.3959671
H          -0.1346175    -0.0421323    -1.9094183
H           0.4449146     1.4320850    -1.1129171
H           1.2545481     0.0714288     0.8166797
C           0.4807808    -1.8292272     0.1677669
H           0.2965384    -2.3688219    -0.7662478
H          -0.4644542    -1.7424072     0.7151924
H           1.1705652    -2.4263780     0.7754127
C           2.3489892    -0.5897952    -0.9452995
C           6.2159479     0.7428042     0.4127458
H           7.1999953     1.0717397     0.7363011
C           5.1100305     0.9265928     1.2430758
H           5.2299657     1.3982549     2.2145606
C           3.8453926     0.5056887     0.8296700
H           3.0013736     0.6591685     1.4933038
C           3.6715894    -0.1060317    -0.4217215
C           4.7955570    -0.2856424    -1.2478407
H           4.6478928    -0.7603078    -2.2121140
C           6.0552731     0.1344206    -0.8362916
H           6.9144198    -0.0105111    -1.4856979
O           2.2891942    -1.1240060    -2.0452733
23
375_C10H12O_1-0-10-17 (135,) energy =    -463.5218711
C           1.0359042    -0.3124582    -0.2127143
C          -0.0639781     0.2964404    -1.0957238
H          -1.0029862     0.3729510    -0.5361956
H          -0.2297434    -0.3265231    -1.9791626
H           0.2102121     1.3007221    -1.4379368
H           1.2100195     0.3616625     0.6321937
C           0.6201419    -1.6910522     0.3400700
H           0.4537935    -2.3927032    -0.4841309
H          -0.3081245    -1.6066244     0.9161690
H           1.3895142    -2.1140041     0.9964594
C           2.3265632    -0.4785910    -1.0257612
C           6.2099857     0.6283157     0.4769154
H           7.1977574     0.9027961     0.8377268
C           5.1093450     0.7003327     1.3315307
H           5.2381203     1.0267651     2.3598720
C           3.8392060     0.3549694     0.8684465
H           2.9980020     0.4139047     1.5510826
C           3.6564282    -0.0744800    -0.4553536
C           4.7753753    -0.1516042    -1.3027790
H           4.6211634    -0.4927283    -2.3210867
C           6.0397012     0.2011862    -0.8438165
H           6.8950531     0.1427946    -1.5115294
O           2.2666321    -0.9597583    -2.1494520
23
375_C10H12O_1-0-10-17 (150,) energy =    -463.5223678
C           1.0142496    -0.2199377    -0.2730646
C          -0.1832046     0.1830323    -1.1422826
H          -1.0969328     0.2167188    -0.5384343
H          -0.3251091    -0.5327989    -1.9564522
H          -0.0335937     1.1709711    -1.5910520
H           1.1509580     0.5403881     0.5049624
C           0.7794722    -1.5813794     0.4174072
H           0.6429235    -2.3681299    -0.3329098
H          -0.1223540    -1.5411660     1.0384997
H           1.6211583    -1.8671103     1.0579584
C           2.2911512    -0.3102015    -1.1179653
C           6.1926745     0.4905583     0.5285278
H           7.1846358     0.6894624     0.9255893
C           5.0762857     0.5783957     1.3612150
H           5.1966381     0.8438807     2.4079625
C           3.8017024     0.3276900     0.8521159
H           2.9469800     0.4003429     1.5165631
C           3.6292302    -0.0190332    -0.4971585
C           4.7622736    -0.1090239    -1.3233295
H           4.6146466    -0.3812837    -2.3631635
C           6.0323921     0.1460144    -0.8171651
H           6.8997363     0.0762055    -1.4681045
O           2.2241830    -0.6462811    -2.2922591
23
375_C10H12O_1-0-10-17 (165,) energy =    -463.5222932
C           1.0032815    -0.1537088    -0.3033985
C          -0.2522674     0.0551018    -1.1561251
H          -1.1481864     0.0180553    -0.5263657
H          -0.3314737    -0.7197286    -1.9238278
H          -0.2304252     1.0223208    -1.6682928
H           1.0618565     0.6471741     0.4461436
C           0.9446023    -1.5064982     0.4427045
H           0.8834453    -2.3333831    -0.2742857
H           0.0536307    -1.5461746     1.0791795
H           1.8226387    -1.6725651     1.0743341
C           2.2684071    -0.1004963    -1.1688347
C           6.1874516     0.3525464     0.5681219
H           7.1833228     0.4660420     0.9882945
C           5.0639732     0.5242305     1.3782866
H           5.1824166     0.7747451     2.4289471
C           3.7850040     0.3766478     0.8410704
H           2.9235259     0.5188877     1.4855449
C           3.6144685     0.0581150    -0.5153894
C           4.7533313    -0.1054203    -1.3211865
H           4.6071474    -0.3431166    -2.3696958
C           6.0290152     0.0369358    -0.7846546
H           6.9017122    -0.0958802    -1.4184128
O           2.1937435    -0.2289881    -2.3825970
23
375_C10H12O_1-0-10-17 (180,) energy =    -463.5209097
C           0.9765739    -0.0964628    -0.3073125
C          -0.2776562    -0.0783896    -1.1873506
H          -1.1746337    -0.1978222    -0.5695775
H          -0.2473343    -0.8932178    -1.9171342
H          -0.3627801     0.8570670    -1.7477004
H           0.9197119     0.7225060     0.4256234
C           1.0599309    -1.4312818     0.4690266
H           1.1285049    -2.2741463    -0.2289562
H           0.1535561    -1.5693454     1.0689038
H           1.9221453    -1.4807943     1.1387604
C           2.2370863     0.1189345    -1.1585821
C           6.1739846     0.2143024     0.5900882
H           7.1743804     0.2407214     1.0139277
C           5.0663940     0.4795577     1.3973940
H           5.2024253     0.7209211     2.4480732
C           3.7815200     0.4370405     0.8561959
H           2.9302053     0.6549089     1.4939757
C           3.5903868     0.1388474    -0.5019348
C           4.7132788    -0.1067625    -1.3078258
H           4.5541616    -0.3149244    -2.3608360
C           5.9944671    -0.0797342    -0.7646589
H           6.8551578    -0.2825819    -1.3962726
O           2.1563778     0.2130590    -2.3746859
