23
375_C10H12O_0-10-17-18 (-165,) energy =    -463.5222289
C           1.0763119    -0.7852902    -0.0133434
C           0.5224092     0.5217416    -0.6234935
H          -0.4255290     0.7891928    -0.1435598
H           0.3340287     0.3920965    -1.6954735
H           1.2157495     1.3599065    -0.5001863
H           1.2536039    -0.6102479     1.0560211
C           0.0790031    -1.9387092    -0.1621687
H          -0.1073138    -2.1552130    -1.2178248
H          -0.8723670    -1.6817532     0.3169041
H           0.4599011    -2.8559430     0.2985430
C           2.4134344    -1.1254493    -0.6821442
C           6.0086194     1.0820219     0.2020880
H           6.9233550     1.6312936     0.4088371
C           4.9110711     1.2066869     1.0551478
H           4.9698825     1.8499006     1.9289353
C           3.7345565     0.5058493     0.7885878
H           2.8923838     0.6153435     1.4642983
C           3.6456070    -0.3371581    -0.3301487
C           4.7581036    -0.4551669    -1.1797608
H           4.6773436    -1.1125117    -2.0392336
C           5.9288030     0.2495249    -0.9183350
H           6.7808675     0.1519288    -1.5856735
O           2.4726269    -1.9942254    -1.5406341
23
375_C10H12O_0-10-17-18 (-150,) energy =    -463.5212149
C           1.0743865    -0.7600451    -0.0173475
C           0.6072103     0.5040624    -0.7730829
H          -0.3537775     0.8469088    -0.3739900
H           0.4726797     0.2849145    -1.8386382
H           1.3268272     1.3239638    -0.6815509
H           1.2001773    -0.4869726     1.0388412
C           0.0457318    -1.8903008    -0.1173824
H          -0.0931196    -2.1950417    -1.1585813
H          -0.9197439    -1.5628294     0.2841421
H           0.3696978    -2.7738301     0.4422829
C           2.4316837    -1.1959508    -0.5800842
C           5.9798901     1.1224116     0.1950014
H           6.8799841     1.7052004     0.3719581
C           4.9602325     1.1052360     1.1479529
H           5.0670950     1.6688422     2.0708072
C           3.7991519     0.3667668     0.9171790
H           3.0153401     0.3643122     1.6684732
C           3.6560167    -0.3827886    -0.2602566
C           4.6901903    -0.3608995    -1.2100620
H           4.5704874    -0.9478064    -2.1150825
C           5.8408006     0.3896746    -0.9873481
H           6.6309795     0.4045606    -1.7331688
O           2.5122989    -2.1346090    -1.3588500
23
375_C10H12O_0-10-17-18 (-135,) energy =    -463.5194181
C           1.0770166    -0.7297731    -0.0349952
C           0.6765660     0.4506832    -0.9482042
H          -0.2851336     0.8646174    -0.6257611
H           0.5701858     0.1133640    -1.9857254
H           1.4192997     1.2546066    -0.9236528
H           1.1769650    -0.3347717     0.9851977
C           0.0216168    -1.8390894    -0.0469361
H          -0.0822947    -2.2605662    -1.0509273
H          -0.9503721    -1.4452969     0.2704073
H           0.2971897    -2.6580374     0.6257294
C           2.4416653    -1.2530392    -0.4947275
C           5.9442900     1.1535227     0.2044795
H           6.8291795     1.7639616     0.3637231
C           5.0190456     0.9823474     1.2356662
H           5.1856037     1.4523493     2.2011413
C           3.8742510     0.2124428     1.0271095
H           3.1590496     0.0889125     1.8355402
C           3.6628806    -0.4238048    -0.2045805
C           4.6005501    -0.2489594    -1.2338934
H           4.4310753    -0.7477639    -2.1832083
C           5.7301752     0.5403697    -1.0330215
H           6.4458094     0.6767057    -1.8393268
O           2.5339266    -2.2530459    -1.1898101
23
375_C10H12O_0-10-17-18 (-120,) energy =    -463.5168527
C           1.0814287    -0.6963277    -0.0618844
C           0.7502285     0.3920161    -1.1075598
H          -0.2075089     0.8648582    -0.8642523
H           0.6661271    -0.0496652    -2.1073279
H           1.5170307     1.1725983    -1.1401250
H           1.1682322    -0.1963261     0.9132615
C          -0.0085753    -1.7694392     0.0051472
H          -0.0947211    -2.2904390    -0.9529021
H          -0.9770077    -1.3171048     0.2460321
H           0.2190739    -2.5212350     0.7681031
C           2.4440174    -1.3021149    -0.4122539
C           5.9105093     1.1761839     0.2173987
H           6.7820231     1.8085581     0.3638694
C           5.0876362     0.8583560     1.2996364
H           5.3202218     1.2376274     2.2910549
C           3.9584636     0.0613375     1.1084597
H           3.3150470    -0.1730358     1.9528259
C           3.6682970    -0.4610311    -0.1591486
C           4.4977677    -0.1361253    -1.2417300
H           4.2685309    -0.5412765    -2.2230807
C           5.6099646     0.6830037    -1.0546402
H           6.2441391     0.9348760    -1.9003856
O           2.5385143    -2.3682031    -0.9976461
23
375_C10H12O_0-10-17-18 (-105,) energy =    -463.5140632
C           1.0735046    -0.6710872    -0.1067523
C           0.8083409     0.3211726    -1.2608138
H          -0.1477737     0.8310993    -1.1006012
H           0.7516985    -0.2086203    -2.2190321
H           1.5913339     1.0823833    -1.3336464
H           1.1330224    -0.0831725     0.8212233
C          -0.0416582    -1.7135401     0.0122520
H          -0.0984741    -2.3228974    -0.8946510
H          -1.0092689    -1.2226142     0.1644150
H           0.1358305    -2.3927648     0.8524056
C           2.4382513    -1.3332072    -0.3184431
C           5.8963533     1.1869517     0.2231554
H           6.7646858     1.8265325     0.3560465
C           5.1791854     0.7416732     1.3350018
H           5.4890995     1.0306378     2.3357149
C           4.0561503    -0.0690434     1.1643063
H           3.4938350    -0.4042311     2.0326668
C           3.6634900    -0.4709073    -0.1185720
C           4.3828634    -0.0158053    -1.2312545
H           4.0790958    -0.3239749    -2.2279720
C           5.4933438     0.8108661    -1.0598954
H           6.0451732     1.1595792    -1.9287280
O           2.5437511    -2.4784975    -0.7199231
23
375_C10H12O_0-10-17-18 (-90,) energy =    -463.5124519
C           1.1034524    -0.4961851    -0.8776228
C           0.1548672    -1.1532071    -1.8837962
H          -0.8591686    -0.7548840    -1.7677492
H           0.1214251    -2.2368616    -1.7346004
H           0.4805933    -0.9754284    -2.9134009
H           1.1338213     0.5905517    -1.0522642
C           0.6330446    -0.7098895     0.5777015
H           0.6097537    -1.7778575     0.8254438
H          -0.3812624    -0.3154847     0.7018666
H           1.2829976    -0.2025358     1.2970823
C           2.5377723    -1.0027585    -1.0503380
C           5.7786010     1.0907764     0.8883789
H           6.6053391     1.6098123     1.3656503
C           5.1530689     0.0244595     1.5365202
H           5.4941014    -0.2927035     2.5184346
C           4.0926175    -0.6447814     0.9237473
H           3.6219118    -1.4861165     1.4251761
C           3.6411152    -0.2443230    -0.3400130
C           4.2801869     0.8180986    -0.9911692
H           3.9493733     1.1229807    -1.9811102
C           5.3424629     1.4836153    -0.3781813
H           5.8320857     2.3059858    -0.8929591
O           2.8024606    -1.9836610    -1.7207799
23
375_C10H12O_0-10-17-18 (-75,) energy =    -463.5143747
C           1.1116204    -0.4893273    -0.9248341
C           0.1902089    -1.2003446    -1.9190475
H          -0.8142072    -0.7636037    -1.8903250
H           0.1138109    -2.2654417    -1.6803535
H           0.5713453    -1.1208489    -2.9423144
H           1.1887800     0.5769136    -1.1861286
C           0.5685611    -0.5669792     0.5195888
H           0.4770606    -1.6111642     0.8410023
H          -0.4256811    -0.1100227     0.5694648
H           1.2187135    -0.0443645     1.2284315
C           2.5263390    -1.0708592    -0.9510791
C           5.7929537     1.0726495     0.8704220
H           6.6318252     1.5973528     1.3195855
C           5.2892845    -0.0838762     1.4703291
H           5.7371389    -0.4632577     2.3849389
C           4.2209920    -0.7655047     0.8885504
H           3.8498914    -1.6835804     1.3356159
C           3.6206982    -0.2737286    -0.2781287
C           4.1392782     0.8778061    -0.8832872
H           3.6982856     1.2511502    -1.8046134
C           5.2225993     1.5471156    -0.3118257
H           5.6221211     2.4363462    -0.7920261
O           2.7659959    -2.1741567    -1.4084700
23
375_C10H12O_0-10-17-18 (-60,) energy =    -463.5172095
C           1.1404252    -0.4747985    -0.9562983
C           0.2484244    -1.2410617    -1.9362786
H          -0.7427099    -0.7778211    -1.9955584
H           0.1295833    -2.2803932    -1.6160408
H           0.6821028    -1.2555094    -2.9416402
H           1.2628850     0.5620331    -1.3014365
C           0.5219313    -0.4155581     0.4586614
H           0.3860040    -1.4261854     0.8609717
H          -0.4601147     0.0680644     0.4178611
H           1.1511689     0.1491090     1.1542862
C           2.5292628    -1.1074984    -0.8451702
C           5.8160426     1.0812807     0.8709347
H           6.6614020     1.6164664     1.2950370
C           5.4331720    -0.1545256     1.3999857
H           5.9815791    -0.5828841     2.2346673
C           4.3594030    -0.8482963     0.8465261
H           4.0782384    -1.8263546     1.2256792
C           3.6260423    -0.2909582    -0.2110367
C           4.0245425     0.9407960    -0.7469617
H           3.4867040     1.3676756    -1.5897866
C           5.1181278     1.6218791    -0.2098530
H           5.4259695     2.5720972    -0.6377807
O           2.7300087    -2.2736708    -1.1409219
23
375_C10H12O_0-10-17-18 (-45,) energy =    -463.5196616
C           1.1571902    -0.4824801    -0.9946050
C           0.2875904    -1.3113273    -1.9439119
H          -0.6875075    -0.8323374    -2.0863457
H           0.1285769    -2.3159083    -1.5413749
H           0.7626780    -1.4222054    -2.9242786
H           1.3214235     0.5128615    -1.4293896
C           0.4747409    -0.2783384     0.3766977
H           0.2884539    -1.2444901     0.8597735
H          -0.4884292     0.2267530     0.2449880
H           1.0886391     0.3285064     1.0502462
C           2.5171458    -1.1461784    -0.7584739
C           5.8403501     1.0601309     0.8624156
H           6.6923052     1.5992666     1.2680871
C           5.5604197    -0.2378842     1.2995702
H           6.1947602    -0.7102585     2.0447717
C           4.4762850    -0.9324498     0.7701905
H           4.2651154    -1.9529631     1.0742677
C           3.6332054    -0.3241427    -0.1728851
C           3.9287507     0.9731870    -0.6160730
H           3.3107297     1.4490457    -1.3722627
C           5.0301802     1.6594285    -0.1030729
H           5.2568904     2.6604223    -0.4599121
O           2.6714271    -2.3457103    -0.9281340
23
375_C10H12O_0-10-17-18 (-30,) energy =    -463.5213410
C           1.1765661    -0.4907842    -1.0289358
C           0.2957085    -1.3972089    -1.8936102
H          -0.6472720    -0.8938014    -2.1343804
H           0.0701511    -2.3307806    -1.3701464
H           0.7954569    -1.6603960    -2.8314207
H           1.3901513     0.4312754    -1.5863486
C           0.4667329    -0.0886593     0.2830893
H           0.2382505    -0.9771953     0.8830516
H          -0.4775150     0.4198139     0.0590864
H           1.0807574     0.5838694     0.8905874
C           2.5042354    -1.1745078    -0.6847813
C           5.8478321     1.0483895     0.8783299
H           6.7029841     1.5916731     1.2716320
C           5.6723982    -0.3032022     1.1900746
H           6.3908314    -0.8129264     1.8264073
C           4.5817178    -0.9994892     0.6783568
H           4.4416192    -2.0546457     0.8898578
C           3.6343554    -0.3506057    -0.1302772
C           3.8233781     1.0039038    -0.4435766
H           3.1184357     1.5231497    -1.0856366
C           4.9262389     1.6977147     0.0557414
H           5.0664943     2.7443669    -0.2003040
O           2.6244395    -2.3875195    -0.7740027
23
375_C10H12O_0-10-17-18 (-15,) energy =    -463.5222564
C           1.1925541    -0.4998419    -1.0437928
C           0.3344914    -1.4461261    -1.8895204
H          -0.5748051    -0.9352026    -2.2253756
H           0.0470460    -2.3289534    -1.3115236
H           0.8795774    -1.7954317    -2.7723622
H           1.4683260     0.3673431    -1.6582201
C           0.4155657     0.0178500     0.1874092
H           0.1231639    -0.8183381     0.8329419
H          -0.4969375     0.5331993    -0.1323521
H           1.0097652     0.7159951     0.7857475
C           2.4756542    -1.1944323    -0.5729026
C           5.8767438     1.0380599     0.8509796
H           6.7446758     1.5835784     1.2119223
C           5.7742847    -0.3393481     1.0681771
H           6.5622875    -0.8667960     1.5989662
C           4.6646371    -1.0366672     0.6015773
H           4.5700772    -2.1074517     0.7491192
C           3.6329704    -0.3692869    -0.0794163
C           3.7474871     1.0130144    -0.2945859
H           2.9714073     1.5537748    -0.8266333
C           4.8636697     1.7113743     0.1668499
H           4.9423303     2.7805827    -0.0100612
O           2.5440264    -2.4150164    -0.5453940
23
375_C10H12O_0-10-17-18 (0,) energy =    -463.5224272
C           1.3376401    -1.1103267    -0.6603038
C           0.5467084    -0.7754826     0.6246768
H          -0.0682808    -1.6314090     0.9244559
H          -0.1193268     0.0766055     0.4481117
H           1.2061298    -0.5207391     1.4610896
H           1.9914101    -1.9653867    -0.4478898
C           0.3955397    -1.4858161    -1.8096740
H          -0.2599231    -0.6475406    -2.0610436
H          -0.2234838    -2.3447801    -1.5273937
H           0.9558875    -1.7491019    -2.7129937
C           2.2059255     0.0955835    -1.0392106
C           6.0472213     0.8032532     0.7827477
H           7.0179503     0.9979007     1.2310663
C           5.5347565     1.6733249    -0.1844398
H           6.1059943     2.5460742    -0.4892276
C           4.2918519     1.4228691    -0.7564885
H           3.8736847     2.0859129    -1.5066129
C           3.5412687     0.2974074    -0.3772837
C           4.0653427    -0.5692225     0.5947872
H           3.5084050    -1.4455192     0.9098745
C           5.3101082    -0.3161647     1.1717203
H           5.7042254    -0.9944349     1.9235752
O           1.8032410     0.9085267    -1.8595927
23
375_C10H12O_0-10-17-18 (15,) energy =    -463.5222564
C           1.3312684    -1.1301416    -0.6783877
C           0.6091109    -0.6718534     0.6084824
H          -0.0523640    -1.4658984     0.9724028
H          -0.0046770     0.2135224     0.4065019
H           1.3129033    -0.4207730     1.4085594
H           1.9351975    -2.0129979    -0.4305666
C           0.3319074    -1.5125910    -1.7747410
H          -0.2834354    -0.6529359    -2.0548048
H          -0.3259548    -2.3158893    -1.4246112
H           0.8451618    -1.8567427    -2.6784404
C           2.2681197    -0.0135714    -1.1539084
C           5.9935362     0.8310414     0.8427832
H           6.9370240     1.0580636     1.3321378
C           5.4432014     1.7339077    -0.0720338
H           5.9578026     2.6647205    -0.2948794
C           4.2376209     1.4395676    -0.7007046
H           3.7983383     2.1205308    -1.4222374
C           3.5550127     0.2446518    -0.4183800
C           4.1179861    -0.6559158     0.4993390
H           3.6189091    -1.5916987     0.7296192
C           5.3306806    -0.3643462     1.1245212
H           5.7580671    -1.0719533     1.8297338
O           1.9506283     0.7023384    -2.0930194
23
375_C10H12O_0-10-17-18 (30,) energy =    -463.5213410
C           1.3171916    -1.1280377    -0.6595221
C           0.6126377    -0.5234858     0.5754265
H          -0.0925788    -1.2476919     0.9979447
H           0.0484340     0.3732378     0.2939731
H           1.3260547    -0.2454410     1.3577962
H           1.8725572    -2.0141816    -0.3236065
C           0.3110195    -1.5538383    -1.7325968
H          -0.2550589    -0.6913190    -2.0960006
H          -0.3925329    -2.2880168    -1.3244333
H           0.8149499    -2.0015340    -2.5952249
C           2.3148916    -0.1041501    -1.2116774
C           5.9661492     0.8385666     0.8725077
H           6.8929493     1.0885574     1.3820907
C           5.3434842     1.7805654     0.0480752
H           5.7851187     2.7645650    -0.0845451
C           4.1616076     1.4556783    -0.6106135
H           3.6764327     2.1652128    -1.2730950
C           3.5683157     0.1948629    -0.4351609
C           4.2048867    -0.7461180     0.3881947
H           3.7796237    -1.7360489     0.5223195
C           5.3989918    -0.4261265     1.0352752
H           5.8871090    -1.1658162     1.6640139
O           2.0628525     0.5307983    -2.2251485
23
375_C10H12O_0-10-17-18 (45,) energy =    -463.5196616
C           1.2973141    -1.1112123    -0.6287709
C           0.5499234    -0.3429607     0.4843686
H          -0.1854268    -0.9983446     0.9638409
H           0.0156686     0.5170329     0.0642536
H           1.2347850     0.0231558     1.2561995
H           1.8139311    -1.9557623    -0.1527915
C           0.3361529    -1.6430673    -1.6953896
H          -0.1744748    -0.8171946    -2.1990741
H          -0.4172383    -2.2957985    -1.2405509
H           0.8692774    -2.2153206    -2.4618266
C           2.3448326    -0.1738897    -1.2369338
C           5.9646845     0.8174712     0.8732055
H           6.8856769     1.0785307     1.3876814
C           5.2448179     1.7985119     0.1849760
H           5.6054770     2.8233357     0.1623516
C           4.0717990     1.4607009    -0.4842951
H           3.5190708     2.2034910    -1.0510907
C           3.5806383     0.1465275    -0.4404635
C           4.3157477    -0.8344354     0.2408227
H           3.9728886    -1.8651697     0.2565812
C           5.5044896    -0.4999571     0.8906394
H           6.0722491    -1.2688901     1.4074678
O           2.1389035     0.4002358    -2.2949682
23
375_C10H12O_0-10-17-18 (60,) energy =    -463.5172096
C           1.2792168    -1.0902071    -0.5965650
C           0.5418902    -0.1895204     0.4199326
H          -0.2290146    -0.7671482     0.9414896
H           0.0511866     0.6460833    -0.0925844
H           1.2254580     0.2215166     1.1699099
H           1.7583758    -1.8993227    -0.0265865
C           0.3200596    -1.6869992    -1.6295424
H          -0.1534270    -0.8949873    -2.2172609
H          -0.4634831    -2.2704085    -1.1334101
H           0.8470764    -2.3438819    -2.3293965
C           2.3788369    -0.2597948    -1.2619819
C           5.9472710     0.8055950     0.8990161
H           6.8585662     1.0814300     1.4228241
C           5.1384407     1.7950586     0.3329271
H           5.4208111     2.8413100     0.4139191
C           3.9783848     1.4408560    -0.3522193
H           3.3636775     2.1991485    -0.8281770
C           3.5888283     0.0962459    -0.4367884
C           4.4119765    -0.8919351     0.1192349
H           4.1401040    -1.9407545     0.0302810
C           5.5887746    -0.5379142     0.7811289
H           6.2259485    -1.3114696     1.2011581
O           2.2424581     0.2102332    -2.3792107
23
375_C10H12O_0-10-17-18 (75,) energy =    -463.5143747
C           1.2437151    -1.0656792    -0.5835642
C           0.5314426    -0.0448306     0.3317702
H          -0.2702940    -0.5401186     0.8900912
H           0.0820849     0.7585261    -0.2637943
H           1.2200659     0.4057511     1.0536124
H           1.6790605    -1.8381902     0.0682021
C           0.2757115    -1.7125188    -1.5773310
H          -0.1558054    -0.9581327    -2.2421153
H          -0.5393070    -2.2160854    -1.0457438
H           0.7845228    -2.4502687    -2.2062155
C           2.4003622    -0.3638638    -1.2976499
C           5.9228961     0.8034169     0.8960834
H           6.8217686     1.1028462     1.4281893
C           5.0161212     1.7703378     0.4556898
H           5.2091325     2.8236444     0.6409104
C           3.8684453     1.3887871    -0.2382780
H           3.1792620     2.1416420    -0.6106783
C           3.5973194     0.0326344    -0.4633924
C           4.5172448    -0.9314166    -0.0326760
H           4.3296481    -1.9847027    -0.2278617
C           5.6765274    -0.5468802     0.6428412
H           6.3875991    -1.3016962     0.9677577
O           2.3398848    -0.0442249    -2.4715666
23
375_C10H12O_0-10-17-18 (90,) energy =    -463.5124519
C           1.2281283    -1.0272064    -0.5586687
C           0.5408239     0.0980055     0.2453413
H          -0.3082942    -0.3101658     0.8040770
H           0.1573850     0.8761137    -0.4254766
H           1.2232405     0.5652274     0.9618374
H           1.6151477    -1.7564106     0.1699575
C           0.2527106    -1.7209771    -1.5131945
H          -0.1331469    -1.0142859    -2.2544004
H          -0.5939448    -2.1376001    -0.9564209
H           0.7405376    -2.5337434    -2.0602085
C           2.4443716    -0.4760570    -1.3074735
C           5.9127945     0.8033944     0.9235640
H           6.7950404     1.1245403     1.4705462
C           4.9132229     1.7236990     0.6037119
H           5.0166105     2.7650708     0.8968111
C           3.7805639     1.3132357    -0.1009402
H           3.0146447     2.0380310    -0.3633885
C           3.6332388    -0.0263313    -0.4819472
C           4.6447351    -0.9430090    -0.1693217
H           4.5481534    -1.9809838    -0.4786018
C           5.7779326    -0.5298004     0.5322612
H           6.5574317    -1.2492101     0.7685884
O           2.4714425    -0.3839471    -2.5209418
23
375_C10H12O_0-10-17-18 (105,) energy =    -463.5140632
C           1.0515049    -0.3347971    -0.2190107
C          -0.3377325     0.0187491    -0.7570528
H          -1.1163105    -0.4078644    -0.1149847
H          -0.4694372    -0.3709007    -1.7708784
H          -0.4837894     1.1029052    -0.8015153
H           1.1765632     0.0842073     0.7904985
C           1.2501373    -1.8628700    -0.1079920
H           1.1495869    -2.3368960    -1.0914890
H           0.4871554    -2.2901701     0.5516467
H           2.2332522    -2.1189495     0.2991024
C           2.1587082     0.2521805    -1.0995374
C           6.1348310     0.2621951     0.5717677
H           7.1357165     0.2585449     0.9947818
C           5.1850203     1.1763973     1.0309837
H           5.4447873     1.8883975     1.8097973
C           3.8955150     1.1729188     0.4973394
H           3.1555701     1.8794082     0.8660481
C           3.5570246     0.2789176    -0.5262128
C           4.5120711    -0.6407716    -0.9787340
H           4.2517195    -1.3372673    -1.7710750
C           5.7945892    -0.6491296    -0.4301355
H           6.5289677    -1.3663482    -0.7868812
O           1.9518759     0.6009483    -2.2482677
23
375_C10H12O_0-10-17-18 (120,) energy =    -463.5168520
C           1.0691983    -0.2914723    -0.2315065
C          -0.2978559     0.0432123    -0.8342706
H          -1.1020888    -0.2976245    -0.1728358
H          -0.4175520    -0.4404468    -1.8081774
H          -0.4122311     1.1214689    -0.9873339
H           1.1810395     0.2177839     0.7362927
C           1.2264219    -1.8066939     0.0270371
H           1.1403102    -2.3670743    -0.9111751
H           0.4374621    -2.1540880     0.7029837
H           2.1935266    -2.0441375     0.4816521
C           2.2112387     0.1620980    -1.1457882
C           6.1636122     0.2774474     0.5638425
H           7.1616554     0.2922433     0.9934552
C           5.1518837     1.0625863     1.1199304
H           5.3616073     1.6939374     1.9791625
C           3.8657987     1.0302703     0.5796706
H           3.0793387     1.6346695     1.0246860
C           3.5924764     0.2461369    -0.5491543
C           4.6127905    -0.5414201    -1.1008019
H           4.3961317    -1.1494545    -1.9743349
C           5.8902577    -0.5295832    -0.5432688
H           6.6735876    -1.1478173    -0.9734927
O           2.0467102     0.3225606    -2.3438597
23
375_C10H12O_0-10-17-18 (135,) energy =    -463.5194183
C           1.0298506    -0.2461900    -0.2209580
C          -0.3074190     0.0667455    -0.8980606
H          -1.1407688    -0.1801002    -0.2308761
H          -0.4152803    -0.5098871    -1.8212397
H          -0.3812272     1.1267928    -1.1626786
H           1.1255232     0.3584233     0.6911346
C           1.1250075    -1.7303371     0.1987267
H           1.0422023    -2.3823541    -0.6785017
H           0.3080231    -1.9790866     0.8849018
H           2.0719952    -1.9511896     0.7017805
C           2.2105519     0.0680960    -1.1454107
C           6.1731476     0.2839305     0.5278412
H           7.1771506     0.3234706     0.9418927
C           5.1212406     0.9254418     1.1840924
H           5.3055524     1.4716535     2.1052143
C           3.8288046     0.8613148     0.6622700
H           3.0170492     1.3613199     1.1832068
C           3.5833686     0.1850170    -0.5414443
C           4.6479294    -0.4534359    -1.1959693
H           4.4499684    -0.9718586    -2.1291217
C           5.9330096    -0.4104087    -0.6610501
H           6.7489168    -0.9155977    -1.1708802
O           2.0727019     0.0989599    -2.3585633
23
375_C10H12O_0-10-17-18 (150,) energy =    -463.5212150
C           1.0191494    -0.2131191    -0.2282322
C          -0.2888778     0.0424359    -0.9828341
H          -1.1466243    -0.0958446    -0.3151845
H          -0.3881227    -0.6452530    -1.8275231
H          -0.3247437     1.0608028    -1.3833525
H           1.0930920     0.4982550     0.6050647
C           1.0632698    -1.6372185     0.3694662
H           1.0000976    -2.3883183    -0.4263938
H           0.2140891    -1.7877520     1.0451618
H           1.9842584    -1.8148751     0.9339950
C           2.2324674    -0.0268999    -1.1458145
C           6.2019570     0.3024592     0.4967779
H           7.2095066     0.3737393     0.8978477
C           5.1189845     0.7685586     1.2438483
H           5.2815475     1.2090048     2.2238101
C           3.8234821     0.6674551     0.7359062
H           2.9920591     1.0347834     1.3297013
C           3.5999253     0.1204922    -0.5367035
C           4.6977596    -0.3415786    -1.2805773
H           4.5131252    -0.7587008    -2.2653328
C           5.9883021    -0.2565715    -0.7665644
H           6.8290391    -0.6242511    -1.3486862
O           2.1129095    -0.0941318    -2.3604078
23
375_C10H12O_0-10-17-18 (165,) energy =    -463.5222287
C           1.0164401    -0.1949549    -0.2474733
C          -0.2636926     0.0360456    -1.0567516
H          -1.1393661     0.0025134    -0.3989397
H          -0.3765010    -0.7295549    -1.8295446
H          -0.2469552     1.0087248    -1.5589136
H           1.1036586     0.5994355     0.5056778
C           0.9781895    -1.5503672     0.4933147
H           0.8947282    -2.3747280    -0.2242839
H           0.1081398    -1.5916369     1.1579674
H           1.8765857    -1.7159565     1.0964632
C           2.2538365    -0.1483553    -1.1516925
C           6.2184394     0.3373696     0.4685622
H           7.2255360     0.4538593     0.8601937
C           5.1172959     0.6228473     1.2772009
H           5.2644712     0.9652088     2.2978911
C           3.8237487     0.4694161     0.7775787
H           2.9801294     0.6972147     1.4212302
C           3.6165408     0.0380241    -0.5419314
C           4.7333604    -0.2438322    -1.3460451
H           4.5594217    -0.5730256    -2.3652157
C           6.0232432    -0.0983385    -0.8455083
H           6.8784799    -0.3233433    -1.4770275
O           2.1457463    -0.3168749    -2.3579852
23
375_C10H12O_0-10-17-18 (180,) energy =    -463.5224286
C           1.0782648    -0.7649858    -0.0329922
C           0.3968071     0.5216010    -0.5512291
H          -0.5288558     0.7091473     0.0042612
H           0.1412989     0.4139144    -1.6114314
H           1.0407999     1.4012448    -0.4469642
H           1.3218555    -0.6218558     1.0271000
C           0.1487849    -1.9767853    -0.1645820
H          -0.0833614    -2.1719139    -1.2150463
H          -0.7872753    -1.7977708     0.3761517
H           0.6131855    -2.8803803     0.2444339
C           2.3792530    -0.9888487    -0.8138270
C           6.0484378     1.0072422     0.2486380
H           6.9832621     1.4998447     0.5028971
C           4.8998802     1.2575384     1.0008937
H           4.9376973     1.9454740     1.8411100
C           3.6999206     0.6232064     0.6783104
H           2.8185253     0.8294328     1.2766333
C           3.6335249    -0.2663100    -0.4056688
C           4.7967302    -0.5082366    -1.1554893
H           4.7311835    -1.1980864    -1.9903653
C           5.9941992     0.1209704    -0.8314449
H           6.8870059    -0.0769144    -1.4184927
O           2.3933544    -1.7334402    -1.7840645
