31
089_C12H18N+_1-0-20-17 (-165,) energy =    -522.6474821
C           3.8294570     1.9617813    -0.3815999
C           2.6239004     2.6816850    -0.4351304
H           2.6401383     3.7454829    -0.6550208
C           1.3946109     2.0469585    -0.2673672
H           0.4780109     2.6263154    -0.3287517
C           1.3421371     0.6721872    -0.0303752
H           0.3857652     0.1746437     0.0992246
C           2.5280123    -0.0567435     0.0285017
H           2.5020419    -1.1280313     0.2053813
C           3.7589199     0.5824681    -0.1395538
N           7.9814141     3.3265771     0.1887092
H           4.6578923    -0.0230246    -0.0843676
H           8.1534932     2.6946284     0.9798510
H           8.8526099     3.8488513     0.0418914
C           7.6506487     2.4945988    -1.0375049
H           8.4937073     1.8197107    -1.2058375
H           7.5869498     3.1977965    -1.8726557
C           6.3411204     1.7565997    -0.7986426
H           6.4777171     1.0503247     0.0302706
H           6.1364625     1.1511019    -1.6881273
C           5.1586281     2.7073601    -0.5080968
H           5.0735379     3.4135247    -1.3485088
C           5.5272876     3.5435108     0.7661937
H           5.6562817     2.8320805     1.5969490
C           4.5003075     4.5955231     1.2124221
H           3.5588599     4.1224143     1.4929415
H           4.2949113     5.3230170     0.4183505
H           4.8681411     5.1448495     2.0863900
C           6.8578895     4.2808745     0.5599809
H           7.1794209     4.8060741     1.4631361
H           6.7943159     5.0021078    -0.2607639
31
089_C12H18N+_1-0-20-17 (-150,) energy =    -522.6503380
C           3.8305771     1.9786229    -0.3699272
C           2.6283619     2.6531291    -0.6344791
H           2.6560325     3.6785983    -0.9956987
C           1.3967001     2.0207472    -0.4706441
H           0.4806393     2.5599557    -0.6933526
C           1.3435133     0.6978811    -0.0282182
H           0.3861618     0.2010751     0.0970924
C           2.5290120     0.0176363     0.2477632
H           2.4993828    -1.0121696     0.5916199
C           3.7613262     0.6539393     0.0838853
N           7.9772749     3.3116044     0.1599029
H           4.6635919     0.0940869     0.3132051
H           8.1590325     2.6218432     0.8989172
H           8.8492038     3.8387021     0.0369822
C           7.6231867     2.5737125    -1.1204255
H           8.4664803     1.9204719    -1.3586085
H           7.5379734     3.3399568    -1.8961446
C           6.3217758     1.8105712    -0.9126217
H           6.4860645     1.0312269    -0.1579269
H           6.0865517     1.2880824    -1.8459490
C           5.1507451     2.7311052    -0.5028335
H           5.0260953     3.4872572    -1.2926160
C           5.5419562     3.4926788     0.8050181
H           5.6811025     2.7409667     1.5977798
C           4.4980023     4.5071386     1.2944559
H           3.5531983     4.0077783     1.5147734
H           4.3048648     5.2786916     0.5396572
H           4.8359902     5.0052553     2.2098620
C           6.8667501     4.2431751     0.6214497
H           7.2110105     4.7064568     1.5499242
H           6.7873701     5.0171557    -0.1482655
31
089_C12H18N+_1-0-20-17 (-135,) energy =    -522.6521824
C           3.8165727     2.0160434    -0.3532116
C           2.6270759     2.5932900    -0.8190457
H           2.6574958     3.5601451    -1.3165463
C           1.4049285     1.9373759    -0.6683432
H           0.4962860     2.3983718    -1.0442604
C           1.3526399     0.6928316    -0.0394572
H           0.4031832     0.1789162     0.0766841
C           2.5277221     0.1120970     0.4397905
H           2.4963161    -0.8548845     0.9333359
C           3.7487377     0.7705369     0.2880948
N           7.9702437     3.2788225     0.1380334
H           4.6466801     0.2977411     0.6791864
H           8.1469270     2.5374390     0.8266009
H           8.8520010     3.7939735     0.0368358
C           7.5830439     2.6365857    -1.1844047
H           8.4126628     1.9906887    -1.4830363
H           7.4970594     3.4575072    -1.9020056
C           6.2724860     1.8791942    -1.0113598
H           6.4353925     1.0282588    -0.3379171
H           6.0023031     1.4508990    -1.9823422
C           5.1279755     2.7782895    -0.4900320
H           4.9729893     3.5801154    -1.2271225
C           5.5567138     3.4603238     0.8445653
H           5.6989546     2.6695393     1.5976505
C           4.5200925     4.4544987     1.3876530
H           3.5713535     3.9479909     1.5749731
H           4.3334812     5.2646630     0.6726344
H           4.8558341     4.9019269     2.3294881
C           6.8875550     4.2017548     0.6780091
H           7.2592636     4.6041462     1.6241961
H           6.8063035     5.0203744    -0.0438478
31
089_C12H18N+_1-0-20-17 (-120,) energy =    -522.6530299
C           3.7911234     2.0611730    -0.3197806
C           2.6406905     2.5120789    -0.9790958
H           2.6873859     3.4112634    -1.5894451
C           1.4343491     1.8187996    -0.8667073
H           0.5535453     2.1824498    -1.3876587
C           1.3618274     0.6635138    -0.0882275
H           0.4247582     0.1220783     0.0004943
C           2.5007313     0.2060988     0.5776528
H           2.4515814    -0.6918850     1.1866126
C           3.7053700     0.8997721     0.4626552
N           7.9618667     3.2563641     0.0988182
H           4.5790216     0.5250359     0.9925626
H           8.1417049     2.4787715     0.7453268
H           8.8508637     3.7588979    -0.0020355
C           7.5270645     2.6874903    -1.2429297
H           8.3366283     2.0437933    -1.5963842
H           7.4371195     3.5453395    -1.9154410
C           6.2069248     1.9455737    -1.0730599
H           6.3670411     1.0483499    -0.4607536
H           5.8940772     1.5875041    -2.0594306
C           5.0977570     2.8296054    -0.4552885
H           4.9215994     3.6676626    -1.1458906
C           5.5775819     3.4439038     0.8905261
H           5.7331943     2.6236260     1.6081682
C           4.5646963     4.4248898     1.4986032
H           3.6158652     3.9177513     1.6857895
H           4.3692246     5.2640588     0.8204852
H           4.9247821     4.8310453     2.4500104
C           6.9133799     4.1727585     0.7134220
H           7.3219729     4.5274588     1.6634806
H           6.8232615     5.0230917     0.0303285
31
089_C12H18N+_1-0-20-17 (-105,) energy =    -522.6528975
C           3.7652097     2.0953620    -0.2810458
C           2.6866141     2.4061623    -1.1186710
H           2.7753533     3.2261112    -1.8281399
C           1.4959938     1.6810615    -1.0505685
H           0.6692609     1.9395597    -1.7056518
C           1.3688451     0.6300964    -0.1419833
H           0.4428478     0.0658020    -0.0855456
C           2.4385971     0.3068799     0.6950266
H           2.3477608    -0.5108829     1.4040011
C           3.6286454     1.0312470     0.6228586
N           7.9587493     3.2379242     0.0338694
H           4.4504124     0.7565033     1.2811967
H           8.1536171     2.4340304     0.6428397
H           8.8496227     3.7338219    -0.0821985
C           7.4659662     2.7265287    -1.3110631
H           8.2523005     2.0864130    -1.7192638
H           7.3637532     3.6109456    -1.9464215
C           6.1420750     1.9963976    -1.1195725
H           6.3088637     1.0698663    -0.5532710
H           5.7819149     1.6879988    -2.1063868
C           5.0721354     2.8647117    -0.4140086
H           4.8790810     3.7336760    -1.0610805
C           5.6121624     3.4200476     0.9312553
H           5.7938716     2.5760026     1.6137446
C           4.6334169     4.3866689     1.6140475
H           3.6868718     3.8810519     1.8169087
H           4.4215254     5.2521766     0.9752053
H           5.0323580     4.7533663     2.5659561
C           6.9468482     4.1424933     0.7229413
H           7.3982735     4.4607217     1.6664920
H           6.8375964     5.0165116     0.0733360
31
089_C12H18N+_1-0-20-17 (-90,) energy =    -522.6519714
C           3.7392927     2.1226212    -0.2549591
C           2.7625244     2.2759936    -1.2483725
H           2.9169466     2.9982971    -2.0476007
C           1.5870081     1.5257996    -1.2195492
H           0.8390206     1.6661597    -1.9943251
C           1.3722020     0.6026277    -0.1951130
H           0.4563078     0.0200167    -0.1677354
C           2.3408172     0.4331534     0.7948328
H           2.1828619    -0.2839439     1.5951311
C           3.5181534     1.1824552     0.7613830
N           7.9487229     3.2385274    -0.0293248
H           4.2587036     1.0246378     1.5419306
H           8.1594116     2.4066742     0.5352938
H           8.8384795     3.7339386    -0.1555456
C           7.4026722     2.7916375    -1.3764081
H           8.1686748     2.1671871    -1.8432735
H           7.2819125     3.7048412    -1.9661653
C           6.0823273     2.0603015    -1.1670545
H           6.2625198     1.1067899    -0.6513055
H           5.6808891     1.8011681    -2.1518809
C           5.0456295     2.8982413    -0.3777191
H           4.8357395     3.7976123    -0.9771851
C           5.6389598     3.3920169     0.9662263
H           5.8465239     2.5219756     1.6070878
C           4.6957444     4.3375529     1.7255962
H           3.7516836     3.8338879     1.9434732
H           4.4694083     5.2301920     1.1306757
H           5.1342521     4.6613944     2.6756630
C           6.9690981     4.1167205     0.7358142
H           7.4576458     4.3919267     1.6743423
H           6.8403233     5.0184232     0.1291161
31
089_C12H18N+_1-0-20-17 (-75,) energy =    -522.6505392
C           3.7146688     2.1389290    -0.2400123
C           2.8558288     2.1166438    -1.3489488
H           3.0859197     2.7270065    -2.2205534
C           1.6963086     1.3433035    -1.3445786
H           1.0401467     1.3510365    -2.2099508
C           1.3788928     0.5660282    -0.2288874
H           0.4745222    -0.0348238    -0.2204396
C           2.2306532     0.5675168     0.8749033
H           1.9943965    -0.0351766     1.7470133
C           3.3936543     1.3414592     0.8664386
N           7.9356134     3.2270925    -0.0866868
H           4.0401437     1.3141793     1.7393556
H           8.1514497     2.3598347     0.4198311
H           8.8279039     3.7184528    -0.2107998
C           7.3399778     2.8703539    -1.4389881
H           8.0822819     2.2693027    -1.9703150
H           7.2085061     3.8195521    -1.9663394
C           6.0214945     2.1372508    -1.2272983
H           6.2120465     1.1523324    -0.7781999
H           5.5842503     1.9412298    -2.2109482
C           5.0174181     2.9279105    -0.3498738
H           4.7891108     3.8602931    -0.8909536
C           5.6591087     3.3498553     0.9943044
H           5.8746620     2.4488446     1.5881491
C           4.7613515     4.2822341     1.8244628
H           3.8081010     3.7994919     2.0469806
H           4.5456750     5.2073179     1.2770788
H           5.2354965     4.5500868     2.7749081
C           6.9916163     4.0695980     0.7575869
H           7.5125143     4.2874595     1.6936968
H           6.8544229     5.0048604     0.2061630
31
089_C12H18N+_1-0-20-17 (-60,) energy =    -522.6479840
C           3.6940348     2.1634892    -0.2293419
C           2.9532668     1.9522704    -1.4036020
H           3.2480156     2.4474008    -2.3269059
C           1.8126495     1.1524112    -1.4041516
H           1.2484214     1.0205909    -2.3227283
C           1.3983795     0.5232569    -0.2283826
H           0.5098738    -0.1008091    -0.2252781
C           2.1367169     0.7017081     0.9395323
H           1.8303651     0.2123977     1.8594972
C           3.2798585     1.5057501     0.9364998
N           7.9285363     3.1875648    -0.1181679
H           3.8381634     1.6055004     1.8620550
H           8.1185974     2.2749330     0.3136493
H           8.8366926     3.6543488    -0.2199711
C           7.2937452     2.9653466    -1.4798883
H           8.0059637     2.3947269    -2.0812340
H           7.1742831     3.9598395    -1.9193773
C           5.9655690     2.2442882    -1.2953160
H           6.1507440     1.2213551    -0.9374956
H           5.5056158     2.1380099    -2.2810451
C           4.9939818     2.9684049    -0.3263220
H           4.7460802     3.9333612    -0.7997022
C           5.6730745     3.3161777     1.0206023
H           5.8549833     2.3869958     1.5811502
C           4.8328278     4.2694436     1.8906957
H           3.8530821     3.8429790     2.1088786
H           4.6694442     5.2224962     1.3740375
H           5.3298245     4.4793769     2.8441200
C           7.0298376     3.9969875     0.8016879
H           7.5730144     4.1318744     1.7406716
H           6.9180979     4.9726453     0.3188397
31
089_C12H18N+_1-0-20-17 (-45,) energy =    -522.6437357
C           3.6508956     2.1844724    -0.2504109
C           3.0236203     1.7786025    -1.4412592
H           3.3757710     2.1462566    -2.4013609
C           1.9021926     0.9514498    -1.4279802
H           1.4300778     0.6761338    -2.3665327
C           1.3939936     0.4751254    -0.2189215
H           0.5224536    -0.1722348    -0.2057494
C           2.0241727     0.8345270     0.9697314
H           1.6529685     0.4621702     1.9201157
C           3.1457147     1.6677119     0.9521140
N           7.8938498     3.1231348    -0.1453312
H           3.6197275     1.8922375     1.9006295
H           8.0265402     2.1622819     0.1935980
H           8.8288183     3.5414530    -0.2070383
C           7.2398104     3.0797585    -1.5132866
H           7.9204393     2.5510236    -2.1852419
H           7.1576573     4.1209278    -1.8382935
C           5.8886464     2.3906773    -1.3916101
H           6.0455509     1.3262509    -1.1661581
H           5.4239951     2.4219919    -2.3789268
C           4.9430616     3.0173453    -0.3298820
H           4.6705336     4.0134182    -0.7192221
C           5.6493460     3.2800374     1.0258811
H           5.7714048     2.3247457     1.5568605
C           4.8763351     4.2684914     1.9243394
H           3.8513204     3.9420885     2.0977737
H           4.8265779     5.2567689     1.4521373
H           5.3634955     4.3818580     2.8990131
C           7.0439607     3.8961255     0.8456712
H           7.5948660     3.9255700     1.7892814
H           6.9855506     4.9123707     0.4444517
31
089_C12H18N+_1-0-20-17 (-30,) energy =    -522.6392628
C           3.6532639     2.1708523    -0.2611998
C           3.1569395     1.5618934    -1.4281415
H           3.5970945     1.7718032    -2.3970061
C           2.0552781     0.7073507    -1.3960655
H           1.6922798     0.2725991    -2.3228216
C           1.4313174     0.4060940    -0.1866463
H           0.5757276    -0.2617088    -0.1587148
C           1.9301110     0.9669541     0.9864133
H           1.4718920     0.7328083     1.9429229
C           3.0299456     1.8264841     0.9494220
N           7.8737395     3.0478942    -0.1836412
H           3.3947509     2.2049909     1.8953920
H           7.9320064     2.0470615     0.0419853
H           8.8378261     3.3983917    -0.2085273
C           7.2080703     3.2165348    -1.5340897
H           7.8533237     2.7492517    -2.2820695
H           7.1745985     4.2941118    -1.7183837
C           5.8308961     2.5745249    -1.4826207
H           5.9524257     1.4842390    -1.4192739
H           5.3602943     2.7694943    -2.4487421
C           4.9087509     3.0691380    -0.3318156
H           4.5802258     4.0795514    -0.6269218
C           5.6462792     3.2541702     1.0293367
H           5.6879956     2.2818538     1.5396517
C           4.9554988     4.2875316     1.9484978
H           3.9041995     4.0580026     2.1146421
H           4.9977853     5.2858073     1.4968663
H           5.4460507     4.3369768     2.9269622
C           7.0866547     3.7724166     0.8889614
H           7.6386331     3.6671165     1.8264301
H           7.1081935     4.8249874     0.5915509
31
089_C12H18N+_1-0-20-17 (-15,) energy =    -522.6392531
C           3.7193601     2.0650081    -0.2616042
C           3.4021366     1.1658778    -1.2944099
H           4.1001055     0.9669703    -2.0995338
C           2.2027605     0.4506776    -1.3024220
H           2.0088587    -0.2533158    -2.1064043
C           1.2581355     0.6480548    -0.2990105
H           0.3232326     0.0959465    -0.3052732
C           1.5189827     1.5889392     0.6964903
H           0.7785882     1.7919442     1.4648394
C           2.7187820     2.2988348     0.7004172
N           7.9365713     3.4337024    -0.3139951
H           2.8399273     3.0737419     1.4444964
H           8.2994226     2.5033857    -0.0734723
H           8.7537813     4.0464381    -0.4148558
C           7.1748705     3.3424409    -1.6192626
H           7.8618844     2.9442975    -2.3702835
H           6.9128170     4.3694901    -1.8888460
C           5.9468748     2.4653330    -1.4303461
H           6.2543618     1.4323520    -1.2199921
H           5.4469238     2.4447528    -2.4031040
C           4.9723631     2.9609106    -0.3330474
H           4.6518966     3.9836095    -0.5846698
C           5.8065756     3.0375590     1.0005205
H           6.1524930     2.0160355     1.2234253
C           5.1093840     3.5727782     2.2664921
H           4.4050653     2.8455576     2.6675075
H           4.5752595     4.5098469     2.0734907
H           5.8469005     3.7659413     3.0542713
C           7.0506186     3.9220113     0.8158457
H           7.6718764     3.9354001     1.7146286
H           6.7798662     4.9520052     0.5627587
31
089_C12H18N+_1-0-20-17 (0,) energy =    -522.6442425
C           3.7422881     2.0979387    -0.2604842
C           3.5058129     1.0301524    -1.1396071
H           4.2655854     0.7040885    -1.8418824
C           2.3002738     0.3244790    -1.1157063
H           2.1575932    -0.5101480    -1.7958532
C           1.2839101     0.6966589    -0.2395244
H           0.3447543     0.1519201    -0.2245755
C           1.4760859     1.7961238     0.5984856
H           0.6796442     2.1252028     1.2595597
C           2.6808175     2.4957808     0.5728689
N           7.9495654     3.4510911    -0.3695908
H           2.7746806     3.3847816     1.1871235
H           8.3295622     2.5139964    -0.1897186
H           8.7572846     4.0776796    -0.4608937
C           7.1567726     3.4180230    -1.6624707
H           7.8331445     3.0689120    -2.4468078
H           6.8764020     4.4541210    -1.8720648
C           5.9435469     2.5159522    -1.4883360
H           6.2775504     1.4833962    -1.3219703
H           5.4100191     2.5172294    -2.4444978
C           5.0053415     2.9649477    -0.3451183
H           4.6939124     4.0026808    -0.5384758
C           5.8626053     2.9651105     0.9717121
H           6.2172662     1.9335764     1.1250254
C           5.1613384     3.4033813     2.2676325
H           4.3717279     2.7026900     2.5386697
H           4.7204406     4.4026936     2.1748008
H           5.8760687     3.4275257     3.0981769
C           7.0949335     3.8675112     0.8149163
H           7.7420126     3.8312707     1.6950660
H           6.8119650     4.9086429     0.6306970
31
089_C12H18N+_1-0-20-17 (15,) energy =    -522.6478902
C           3.7483249     2.1269936    -0.2782194
C           3.5903218     0.9328204    -0.9954332
H           4.4017015     0.5261306    -1.5907939
C           2.3892984     0.2205315    -0.9501256
H           2.2975693    -0.7074001    -1.5069929
C           1.3127099     0.7019233    -0.2080814
H           0.3777999     0.1505181    -0.1780028
C           1.4400475     1.9106219     0.4789598
H           0.6005134     2.3128384     1.0383891
C           2.6393896     2.6184473     0.4317144
N           7.9520470     3.4382921    -0.4043459
H           2.7042174     3.5781852     0.9371736
H           8.3218362     2.4866980    -0.2919575
H           8.7671060     4.0581958    -0.4726726
C           7.1358360     3.4972703    -1.6837593
H           7.7973556     3.1996610    -2.5013016
H           6.8576976     4.5465509    -1.8168166
C           5.9221481     2.5887826    -1.5448393
H           6.2646123     1.5504097    -1.4477958
H           5.3607708     2.6413228    -2.4837194
C           5.0194860     2.9741215    -0.3528121
H           4.7143291     4.0234793    -0.4826488
C           5.8870015     2.9006834     0.9497974
H           6.2250348     1.8581426     1.0593721
C           5.1740080     3.2971489     2.2514123
H           4.3365486     2.6274655     2.4510530
H           4.7877371     4.3221653     2.2042518
H           5.8606536     3.2339263     3.1029901
C           7.1294625     3.7921570     0.8244500
H           7.7949322     3.6936817     1.6861314
H           6.8583117     4.8462648     0.7095436
31
089_C12H18N+_1-0-20-17 (30,) energy =    -522.6503231
C           3.7338304     2.1620139    -0.2763718
C           3.6542193     0.8715816    -0.8184244
H           4.5195582     0.4060782    -1.2815159
C           2.4626927     0.1451142    -0.7647287
H           2.4255200    -0.8547047    -1.1873204
C           1.3247716     0.7016755    -0.1820724
H           0.3975325     0.1377955    -0.1459737
C           1.3830985     1.9939664     0.3424159
H           0.4993715     2.4453478     0.7837574
C           2.5737400     2.7169568     0.2866307
N           7.9320277     3.4346579    -0.4252351
H           2.5981053     3.7319986     0.6764319
H           8.2819772     2.4698907    -0.3838511
H           8.7597567     4.0395924    -0.4712299
C           7.0919741     3.5965680    -1.6811813
H           7.7332117     3.3488740    -2.5309214
H           6.8288238     4.6568709    -1.7328834
C           5.8659549     2.6983347    -1.5825347
H           6.1944315     1.6513892    -1.5797949
H           5.2775597     2.8322998    -2.4964418
C           5.0044328     3.0049190    -0.3382613
H           4.6989007     4.0604031    -0.3939423
C           5.8899651     2.8506469     0.9404867
H           6.2095822     1.7982571     0.9980473
C           5.1770916     3.2004394     2.2549707
H           4.3136774     2.5502413     2.4056879
H           4.8227907     4.2381450     2.2542427
H           5.8480791     3.0717040     3.1114030
C           7.1450985     3.7259035     0.8438047
H           7.8282497     3.5631910     1.6817251
H           6.8914066     4.7896467     0.7997110
31
089_C12H18N+_1-0-20-17 (45,) energy =    -522.6521003
C           3.7321935     2.1960841    -0.2660656
C           3.7261400     0.8374581    -0.6144695
H           4.6445610     0.3370316    -0.9120291
C           2.5452173     0.0950038    -0.5727098
H           2.5611411    -0.9565458    -0.8440388
C           1.3478532     0.7012168    -0.1902561
H           0.4285859     0.1239390    -0.1623972
C           1.3384110     2.0543792     0.1500647
H           0.4106368     2.5377413     0.4416799
C           2.5204758     2.7942368     0.1072101
N           7.9280010     3.4103452    -0.4704119
H           2.4988106     3.8514768     0.3621610
H           8.2481444     2.4346666    -0.4932707
H           8.7729282     3.9915606    -0.5080451
C           7.0587112     3.6693387    -1.6905481
H           7.6702428     3.4583066    -2.5715324
H           6.8241048     4.7374121    -1.6696986
C           5.8096070     2.8005526    -1.6124918
H           6.0998575     1.7462140    -1.7023749
H           5.1915699     3.0218206    -2.4890246
C           5.0016909     3.0367287    -0.3163769
H           4.7013809     4.0947906    -0.2991865
C           5.9168973     2.8017517     0.9240202
H           6.2159423     1.7418482     0.9264918
C           5.2272907     3.1055573     2.2618588
H           4.3476717     2.4710387     2.3868272
H           4.8980902     4.1503607     2.3114011
H           5.9001986     2.9200371     3.1061125
C           7.1877288     3.6535792     0.8368602
H           7.8916629     3.4323406     1.6436576
H           6.9584691     4.7236083     0.8547140
31
089_C12H18N+_1-0-20-17 (60,) energy =    -522.6530332
C           3.8595930     1.8020266    -0.2717088
C           3.3860773     1.3832454     0.9808875
H           3.9828449     1.5387343     1.8776413
C           2.1415155     0.7651887     1.1012275
H           1.7899293     0.4484084     2.0788019
C           1.3519660     0.5524269    -0.0307199
H           0.3839957     0.0694477     0.0632786
C           1.8132226     0.9623951    -1.2817638
H           1.2071410     0.8002967    -2.1682398
C           3.0584504     1.5821267    -1.3992247
N           7.7782751     3.4766205     0.6426787
H           3.4104652     1.8959147    -2.3794523
H           7.6409210     3.3039742     1.6458547
H           8.7058849     3.9053091     0.5486849
C           7.7392953     2.1467455    -0.0937197
H           8.5340079     1.5240455     0.3250642
H           7.9808229     2.3757103    -1.1356145
C           6.3555970     1.5261650     0.0561032
H           6.1955440     1.2362717     1.1029362
H           6.3411544     0.5960203    -0.5215002
C           5.2219615     2.4636656    -0.4225409
H           5.3823008     2.6562283    -1.4937279
C           5.3082828     3.8366963     0.3031808
H           5.1196924     3.6724586     1.3753507
C           4.2803250     4.8541564    -0.2124297
H           3.2681074     4.4669837    -0.0779081
H           4.4236020     5.0561147    -1.2806026
H           4.3538295     5.8041583     0.3278262
C           6.7071856     4.4441249     0.1597483
H           6.8237410     5.3615004     0.7430496
H           6.9496968     4.6594589    -0.8855664
31
089_C12H18N+_1-0-20-17 (75,) energy =    -522.6527993
C           3.8441751     1.8237670    -0.2741205
C           3.2668888     1.5902089     0.9828679
H           3.7733069     1.9089118     1.8916579
C           2.0369867     0.9407061     1.0917746
H           1.6035945     0.7687570     2.0727174
C           1.3650769     0.5145123    -0.0554184
H           0.4073381     0.0099554     0.0296752
C           1.9288151     0.7432933    -1.3109063
H           1.4111930     0.4190989    -2.2088939
C           3.1577774     1.3959778    -1.4176103
N           7.7958064     3.4378855     0.6069830
H           3.5855744     1.5757838    -2.4016287
H           7.6872568     3.2158329     1.6039737
H           8.7241087     3.8634987     0.5062374
C           7.7227428     2.1470275    -0.1939540
H           8.5235887     1.4977341     0.1690332
H           7.9356979     2.4269911    -1.2296171
C           6.3375459     1.5319473    -0.0349697
H           6.2033809     1.1830994     0.9982448
H           6.2918974     0.6379240    -0.6652237
C           5.1972750     2.5069835    -0.4180316
H           5.3278364     2.7567967    -1.4818677
C           5.3198008     3.8378760     0.3707577
H           5.1717216     3.6299896     1.4412093
C           4.2849144     4.8868141    -0.0623017
H           3.2741680     4.5019176     0.0888539
H           4.3942014     5.1351930    -1.1245922
H           4.3857968     5.8107152     0.5173510
C           6.7199938     4.4373982     0.2062993
H           6.8664025     5.3252677     0.8272522
H           6.9293503     4.6989278    -0.8356093
31
089_C12H18N+_1-0-20-17 (90,) energy =    -522.6517159
C           3.8254076     1.8456333    -0.2657101
C           3.1302208     1.7896246     0.9501784
H           3.5273424     2.2727826     1.8395318
C           1.9153713     1.1080705     1.0452244
H           1.3895024     1.0765148     1.9950207
C           1.3767097     0.4736028    -0.0744130
H           0.4305464    -0.0539377    -0.0001064
C           2.0575996     0.5270494    -1.2916928
H           1.6419668     0.0436143    -2.1708781
C           3.2689958     1.2116528    -1.3852288
N           7.8172746     3.3955157     0.5623091
H           3.7848612     1.2585101    -2.3423996
H           7.7384674     3.1210777     1.5490605
H           8.7464240     3.8173832     0.4539418
C           7.7028511     2.1506933    -0.3034016
H           8.5083989     1.4752610    -0.0041650
H           7.8824839     2.4841069    -1.3295098
C           6.3172554     1.5417144    -0.1276379
H           6.2149737     1.1362992     0.8886897
H           6.2378080     0.6853805    -0.8048086
C           5.1718764     2.5464135    -0.4114396
H           5.2668844     2.8510687    -1.4651856
C           5.3381150     3.8330862     0.4357823
H           5.2283139     3.5784359     1.5005841
C           4.3076300     4.9185263     0.0876214
H           3.2947123     4.5471819     0.2553400
H           4.3860591     5.2120770    -0.9657534
H           4.4468491     5.8135279     0.7036261
C           6.7398772     4.4239482     0.2506945
H           6.9176924     5.2778217     0.9098352
H           6.9155168     4.7357976    -0.7835200
31
089_C12H18N+_1-0-20-17 (105,) energy =    -522.6501704
C           3.8117659     1.8522141    -0.2557120
C           3.0053329     1.9540726     0.8849304
H           3.3048673     2.5735146     1.7256520
C           1.8019791     1.2494306     0.9730333
H           1.1921964     1.3408229     1.8671373
C           1.3825183     0.4390727    -0.0808328
H           0.4450135    -0.1044521    -0.0127424
C           2.1719015     0.3383854    -1.2283289
H           1.8498038    -0.2804319    -2.0606718
C           3.3707327     1.0436953    -1.3141037
N           7.8269103     3.3633790     0.5283625
H           3.9669524     0.9719575    -2.2221241
H           7.7702541     3.0237805     1.4962394
H           8.7548622     3.7892635     0.4256741
C           7.6834049     2.1815145    -0.4162411
H           8.4947027     1.4853055    -0.1889460
H           7.8324951     2.5841366    -1.4222522
C           6.3026864     1.5646881    -0.2355130
H           6.2344584     1.0953943     0.7561682
H           6.2001190     0.7519252    -0.9608279
C           5.1453013     2.5817266    -0.4131276
H           5.1961895     2.9423112    -1.4528158
C           5.3436174     3.8239408     0.4893545
H           5.2474988     3.5217071     1.5430490
C           4.3313324     4.9463179     0.2030555
H           3.3099762     4.5932651     0.3540268
H           4.4135882     5.2905631    -0.8345571
H           4.4932310     5.8062989     0.8620218
C           6.7478182     4.4118634     0.3075614
H           6.9457472     5.2242278     1.0117751
H           6.9011095     4.7846427    -0.7098815
31
089_C12H18N+_1-0-20-17 (120,) energy =    -522.6475926
C           3.8071003     1.8506218    -0.2273297
C           2.9015155     2.0921457     0.8136217
H           3.1250406     2.8150846     1.5917508
C           1.7011515     1.3813954     0.8996056
H           1.0209342     1.5802569     1.7226063
C           1.3746309     0.4309643    -0.0652590
H           0.4391722    -0.1164296    -0.0006855
C           2.2565078     0.1963009    -1.1221925
H           2.0086780    -0.5304738    -1.8902367
C           3.4531045     0.9049231    -1.2034141
N           7.8331311     3.3335412     0.5217087
H           4.1109074     0.7282482    -2.0521716
H           7.7821962     2.9171811     1.4595521
H           8.7621910     3.7625112     0.4453258
C           7.6707563     2.2350222    -0.5140802
H           8.4878627     1.5245053    -0.3658732
H           7.7937750     2.7204537    -1.4865334
C           6.2979618     1.5999696    -0.3451397
H           6.2636695     1.0550271     0.6091343
H           6.1832134     0.8429753    -1.1254059
C           5.1238835     2.6138711    -0.4077389
H           5.1210341     3.0273639    -1.4294718
C           5.3461333     3.8170075     0.5417049
H           5.2363954     3.4784228     1.5828231
C           4.3683201     4.9799692     0.2846526
H           3.3318505     4.6527841     0.3697332
H           4.5037959     5.3822768    -0.7262211
H           4.5252464     5.7952528     0.9993228
C           6.7579384     4.3983590     0.3881114
H           6.9669011     5.1602391     1.1435762
H           6.9049332     4.8390252    -0.6026680
31
089_C12H18N+_1-0-20-17 (135,) energy =    -522.6436232
C           3.8003561     1.8280071    -0.2118325
C           2.8111181     2.1884622     0.7139319
H           2.9684202     3.0053919     1.4089852
C           1.6164992     1.4704699     0.8134161
H           0.8788504     1.7652762     1.5540653
C           1.3692436     0.3921346    -0.0323706
H           0.4381900    -0.1616289     0.0406394
C           2.3287202     0.0383814    -0.9820171
H           2.1470836    -0.7895514    -1.6610742
C           3.5210075     0.7535947    -1.0744275
N           7.8245872     3.2724930     0.5299986
H           4.2279258     0.4719115    -1.8502435
H           7.7569479     2.7629982     1.4197019
H           8.7590223     3.6959309     0.5075670
C           7.6563303     2.2931445    -0.6158430
H           8.4755815     1.5724040    -0.5552119
H           7.7679523     2.8816916    -1.5310783
C           6.2903590     1.6349183    -0.4974209
H           6.2815860     0.9868003     0.3907310
H           6.1788876     0.9667539    -1.3538868
C           5.0966479     2.6283376    -0.4287610
H           5.0266968     3.0940496    -1.4255162
C           5.3375841     3.7939616     0.5678556
H           5.1822900     3.4241912     1.5919648
C           4.4111063     5.0029196     0.3160179
H           3.3592020     4.7211407     0.3409591
H           4.6079821     5.4360372    -0.6718122
H           4.5680759     5.7850797     1.0669850
C           6.7641179     4.3564001     0.4833715
H           6.9713876     5.0464620     1.3053033
H           6.9325730     4.8812994    -0.4617911
31
089_C12H18N+_1-0-20-17 (150,) energy =    -522.6393720
C           3.7837895     1.8512669    -0.2219554
C           2.7187142     2.3057958     0.5717268
H           2.7971088     3.2231761     1.1409638
C           1.5425471     1.5655687     0.7078058
H           0.7481124     1.9438656     1.3445268
C           1.3853701     0.3578850     0.0321957
H           0.4686495    -0.2151385     0.1325211
C           2.4222056    -0.1022379    -0.7781464
H           2.3194514    -1.0379763    -1.3198863
C           3.5977282     0.6367941    -0.9069031
N           7.8015652     3.1891811     0.5502975
H           4.3644148     0.2456389    -1.5670928
H           7.6900318     2.5745977     1.3662659
H           8.7489957     3.5793428     0.6057460
C           7.6316930     2.3734680    -0.7149611
H           8.4407584     1.6395998    -0.7471248
H           7.7577939     3.0765974    -1.5432099
C           6.2610170     1.7170162    -0.6898350
H           6.2560863     0.9429127     0.0902745
H           6.1516035     1.1875201    -1.6387544
C           5.0596427     2.6833582    -0.4771495
H           4.9212261     3.2115828    -1.4340007
C           5.3282328     3.7944555     0.5846284
H           5.1050797     3.3863282     1.5803557
C           4.4806115     5.0660682     0.3502835
H           3.4149233     4.8507061     0.2963459
H           4.7606133     5.5396587    -0.5982174
H           4.6341167     5.7967981     1.1521924
C           6.7784376     4.3051132     0.6019901
H           6.9807007     4.8917760     1.5017162
H           6.9959990     4.9266162    -0.2716428
31
089_C12H18N+_1-0-20-17 (165,) energy =    -522.6379646
C           3.7971040     1.9604806    -0.3658891
C           2.6151891     2.5731348     0.0862025
H           2.5780335     3.6365060     0.2679990
C           1.4287217     1.8556361     0.2383088
H           0.5369555     2.3736325     0.5791903
C           1.3827498     0.4927176    -0.0481747
H           0.4604614    -0.0673199     0.0726817
C           2.5389143    -0.1360672    -0.5020254
H           2.5283232    -1.1957228    -0.7401277
C           3.7247652     0.5851186    -0.6522292
N           7.9529869     3.2973287     0.3400888
H           4.5905141     0.0351024    -1.0004110
H           8.0073351     2.7251134     1.1914990
H           8.8658490     3.7554203     0.2388122
C           7.6703848     2.3969941    -0.8416398
H           8.4793466     1.6642442    -0.8976789
H           7.7105212     3.0374006    -1.7273818
C           6.3105392     1.7445905    -0.6551672
H           6.3418027     1.0679544     0.2094296
H           6.1645876     1.1111010    -1.5342086
C           5.1273849     2.7355312    -0.5077352
H           5.0831884     3.3452245    -1.4248983
C           5.4632924     3.7176298     0.6741913
H           5.4618886     3.1309412     1.6050500
C           4.5322396     4.9380533     0.8673121
H           3.6534840     4.6858087     1.4582798
H           4.2038009     5.3493395    -0.0931680
H           5.0485881     5.7391071     1.4093728
C           6.8627993     4.3364477     0.5085827
H           7.1357917     4.9358405     1.3801944
H           6.9170043     4.9708924    -0.3818570
31
089_C12H18N+_1-0-20-17 (180,) energy =    -522.6430382
C           3.8193268     1.9680160    -0.4090677
C           2.6182346     2.6789126    -0.2370428
H           2.6099991     3.7599719    -0.3141494
C           1.4023561     2.0209704    -0.0602946
H           0.4914940     2.6023008     0.0495151
C           1.3535335     0.6268089    -0.0320377
H           0.4076560     0.1124626     0.1083616
C           2.5318757    -0.0962357    -0.1984267
H           2.5134166    -1.1821276    -0.1879604
C           3.7488975     0.5662658    -0.3765488
N           7.9843851     3.3266858     0.2280109
H           4.6376768    -0.0436101    -0.4938106
H           8.1229273     2.7469059     1.0644205
H           8.8670226     3.8273455     0.0740364
C           7.6746790     2.4220349    -0.9482346
H           8.5041252     1.7162589    -1.0404141
H           7.6581365     3.0666007    -1.8315261
C           6.3404673     1.7308657    -0.7109436
H           6.4216961     1.0702185     0.1617858
H           6.1677983     1.0806634    -1.5749304
C           5.1581788     2.7115548    -0.5283584
H           5.1157972     3.3721049    -1.4087238
C           5.5137187     3.6094817     0.7141436
H           5.6186455     2.9355481     1.5788172
C           4.5204739     4.7144727     1.1133692
H           3.5963473     4.2888472     1.5022685
H           4.2744886     5.3674263     0.2680968
H           4.9473940     5.3396049     1.9061554
C           6.8627530     4.3134828     0.4976847
H           7.1627111     4.8930829     1.3742915
H           6.8337271     4.9804962    -0.3696110
