27
005_C13H13N_0-6-7-22 (-165,) energy =    -557.9546189
C          -0.1125620    -0.4526213    -0.8783512
H          -0.0750642    -0.5332173    -1.9582792
C          -1.3349686    -0.6402117    -0.2323744
H          -2.2160018    -0.8563410    -0.8318453
C          -1.4361235    -0.5574669     1.1546090
H          -2.3897707    -0.7063412     1.6523714
C           1.0572181    -0.1759417    -0.1411919
N           2.2771066     0.0557283    -0.7905546
C           2.2997113     0.1773539    -2.2422639
H           3.3057486     0.4534714    -2.5589015
H           1.5995410     0.9480516    -2.5879732
H           2.0390172    -0.7699412    -2.7386772
C          -0.2832505    -0.2716018     1.8912055
H          -0.3365321    -0.1866779     2.9739090
C           6.0238452    -0.0415336     1.1832064
H           6.9896816    -0.0687569     1.6797795
C           5.6733584     1.0471782     0.3834458
H           6.3633185     1.8777650     0.2591897
C           0.9418317    -0.0770737     1.2629034
H           1.8147672     0.1660697     1.8577120
C           4.4289725     1.0886275    -0.2454624
H           4.1485497     1.9507928    -0.8441897
C           3.5220308     0.0278423    -0.1017773
C           3.8844775    -1.0690842     0.6962280
H           3.1916053    -1.8979760     0.8036992
C           5.1203155    -1.0952830     1.3402913
H           5.3847807    -1.9526912     1.9537772
27
005_C13H13N_0-6-7-22 (-150,) energy =    -557.9549447
C          -0.0690524    -0.5701065    -0.8357409
H           0.0016595    -0.7438597    -1.9033615
C          -1.2763505    -0.8353365    -0.1866381
H          -2.1172946    -1.2015066    -0.7705170
C          -1.4087861    -0.6468319     1.1870839
H          -2.3492164    -0.8576247     1.6877791
C           1.0439994    -0.0963965    -0.1153606
N           2.2494481     0.2316814    -0.7588045
C           2.2768770     0.2852783    -2.2155342
H           3.2231317     0.7206764    -2.5391078
H           1.4603832     0.9125943    -2.5884238
H           2.1889049    -0.7113520    -2.6779463
C          -0.3074919    -0.1757246     1.9089072
H          -0.3895240    -0.0092455     2.9802002
C           6.0104009    -0.1637490     1.1551703
H           6.9788552    -0.2636982     1.6371145
C           5.7234676     0.9591374     0.3768342
H           6.4660426     1.7434908     0.2552442
C           0.8973858     0.1026370     1.2742950
H           1.7333428     0.4879896     1.8481521
C           4.4767441     1.0945430    -0.2325755
H           4.2464235     1.9836351    -0.8130615
C           3.5009883     0.0961480    -0.0903896
C           3.7981259    -1.0343167     0.6871072
H           3.0505735    -1.8134320     0.7989545
C           5.0389719    -1.1548989     1.3111157
H           5.2518832    -2.0370541     1.9094970
27
005_C13H13N_0-6-7-22 (-135,) energy =    -557.9549238
C           0.0970617     0.5971778     0.8504451
H           0.3477225     0.9384963     1.8511288
C          -1.1688111     0.8431567     0.3197072
H          -1.9076442     1.3688533     0.9189960
C          -1.4799170     0.4375156    -0.9793943
H          -2.4629828     0.6383916    -1.3958374
C           1.0664676    -0.0803788     0.0960090
N           2.3396114    -0.3615765     0.6725310
C           2.3645903    -1.2583002     1.8217724
H           3.1693937    -0.9758166     2.5089983
H           2.5076853    -2.3122887     1.5335006
H           1.4143223    -1.1820961     2.3520678
C          -0.5140129    -0.2248458    -1.7403976
H          -0.7459488    -0.5500561    -2.7513470
C           5.9386125     0.3960549    -1.4271282
H           6.8635438     0.6014460    -1.9579323
C           5.8739313    -0.6224205    -0.4790212
H           6.7533971    -1.2251180    -0.2654446
C           0.7461648    -0.4916396    -1.2071770
H           1.4905671    -1.0186350    -1.7961766
C           4.6875579    -0.8951600     0.2043462
H           4.6703859    -1.7063632     0.9231302
C           3.5260188    -0.1386050    -0.0441919
C           3.6032397     0.8979382    -0.9991481
H           2.7285811     1.5092481    -1.1934774
C           4.7890405     1.1514885    -1.6787885
H           4.8163954     1.9589497    -2.4064240
27
005_C13H13N_0-6-7-22 (-120,) energy =    -557.9543636
C           0.2180340     0.7042800     0.7843724
H           0.5522186     1.1110872     1.7348304
C          -1.0454036     1.0188721     0.2819853
H          -1.7029627     1.6714650     0.8502793
C          -1.4556874     0.5142894    -0.9532131
H          -2.4361529     0.7662153    -1.3479032
C           1.0756104    -0.1397402     0.0665805
N           2.3510612    -0.4857240     0.6082462
C           2.3737008    -1.4200210     1.7243664
H           3.1275999    -1.1253016     2.4639313
H           2.5883029    -2.4536542     1.4078764
H           1.3951652    -1.4120615     2.2077545
C          -0.5969244    -0.3125568    -1.6816210
H          -0.9096928    -0.7104856    -2.6434640
C           5.9479936     0.5235794    -1.3797841
H           6.8720921     0.7899887    -1.8842690
C           5.9269147    -0.4849067    -0.4183620
H           6.8407828    -1.0182396    -0.1677117
C           0.6588709    -0.6438873    -1.1738779
H           1.3276857    -1.2917529    -1.7330098
C           4.7430553    -0.8361721     0.2311845
H           4.7620623    -1.6364320     0.9621139
C           3.5363420    -0.1702699    -0.0651209
C           3.5673722     0.8542310    -1.0362362
H           2.6570373     1.3933994    -1.2740021
C           4.7543432     1.1861999    -1.6799684
H           4.7453858     1.9818120    -2.4211183
27
005_C13H13N_0-6-7-22 (-105,) energy =    -557.9535576
C           0.2876963     0.8780383     0.6842796
H           0.7066381     1.3892055     1.5463105
C          -0.9536113     1.2497988     0.1641036
H          -1.5117023     2.0595685     0.6265641
C          -1.4725562     0.5883699    -0.9502736
H          -2.4375462     0.8796151    -1.3562063
C           1.0135594    -0.1655089     0.0989734
N           2.2720155    -0.5600021     0.6597078
C           2.2452289    -1.6242239     1.6523711
H           2.9643317    -1.4241735     2.4557277
H           2.4741102    -2.6149408     1.2267181
H           1.2470776    -1.6636832     2.0928977
C          -0.7463648    -0.4464249    -1.5447349
H          -1.1453836    -0.9627929    -2.4138328
C           5.9104881     0.5483561    -1.1969593
H           6.8444888     0.8401593    -1.6680562
C           5.8789021    -0.4718584    -0.2479331
H           6.7951640    -0.9892138     0.0266243
C           0.4920526    -0.8220122    -1.0236797
H           1.0660257    -1.6221489    -1.4827540
C           4.6828625    -0.8554661     0.3589828
H           4.6975923    -1.6632011     1.0815820
C           3.4719035    -0.2105833     0.0322819
C           3.5118187     0.8204361    -0.9317021
H           2.5973783     1.3363632    -1.2026481
C           4.7126768     1.1860926    -1.5305887
H           4.7092061     1.9854836    -2.2677667
27
005_C13H13N_0-6-7-22 (-90,) energy =    -557.9532336
C           0.4226363     0.9745142     0.5615943
H           0.9466943     1.5485645     1.3201492
C          -0.8153998     1.3947611     0.0727828
H          -1.2631324     2.3090457     0.4531372
C          -1.4807410     0.6385010    -0.8942971
H          -2.4470235     0.9633588    -1.2705159
C           1.0092868    -0.2015381     0.0795180
N           2.2632823    -0.6432969     0.6127732
C           2.2380089    -1.7991253     1.4986458
H           2.8551710    -1.6248790     2.3894039
H           2.5981746    -2.7183672     1.0104896
H           1.2106837    -1.9619068     1.8287537
C          -0.9006887    -0.5365510    -1.3767492
H          -1.4129278    -1.1274934    -2.1314566
C           5.9249180     0.6329791    -1.0880567
H           6.8645652     0.9646496    -1.5198749
C           5.8987137    -0.3730011    -0.1235764
H           6.8256880    -0.8375428     0.2042814
C           0.3421213    -0.9523757    -0.8969909
H           0.8049893    -1.8589706    -1.2770962
C           4.6963049    -0.8062522     0.4346105
H           4.7184514    -1.5944816     1.1780496
C           3.4705307    -0.2302528     0.0393855
C           3.5050942     0.7836435    -0.9425998
H           2.5801936     1.2407512    -1.2754391
C           4.7139828     1.2024000    -1.4892100
H           4.7045961     1.9856728    -2.2434790
27
005_C13H13N_0-6-7-22 (-75,) energy =    -557.9536562
C           0.5455864     1.0015836     0.4453624
H           1.1738319     1.5940807     1.1039786
C          -0.6921510     1.4817586     0.0181260
H          -1.0319681     2.4604155     0.3466510
C          -1.5013616     0.7014672    -0.8112495
H          -2.4696567     1.0725767    -1.1356801
C           0.9983260    -0.2580017     0.0287582
N           2.2471480    -0.7627511     0.5019931
C           2.2281821    -1.9478005     1.3487671
H           2.6993412    -1.7540653     2.3227635
H           2.7487871    -2.7972007     0.8835738
H           1.1905913    -2.2317351     1.5303123
C          -1.0605187    -0.5583243    -1.2197691
H          -1.6826996    -1.1699788    -1.8678264
C           5.9444445     0.6983612    -0.9553996
H           6.8931758     1.0732648    -1.3278910
C           5.9035571    -0.2742546     0.0422475
H           6.8279877    -0.6675340     0.4585002
C           0.1862851    -1.0333075    -0.8098007
H           0.5400999    -2.0061141    -1.1401981
C           4.6891374    -0.7597617     0.5262267
H           4.6998040    -1.5121696     1.3062457
C           3.4654341    -0.2765739     0.0164696
C           3.5155197     0.7024578    -0.9995579
H           2.5945531     1.0837399    -1.4255257
C           4.7363849     1.1773957    -1.4679344
H           4.7391236     1.9301158    -2.2527007
27
005_C13H13N_0-6-7-22 (-60,) energy =    -557.9544565
C           0.7002185     0.9715972     0.3589037
H           1.4214842     1.5334538     0.9452151
C          -0.5470048     1.5170445     0.0571217
H          -0.7994320     2.5114457     0.4159923
C          -1.4758221     0.7839663    -0.6856852
H          -2.4498882     1.2080321    -0.9134688
C           1.0420430    -0.3091581    -0.0996506
N           2.2972725    -0.8998755     0.2395344
C           2.2881655    -1.9659615     1.2311083
H           2.5315017    -1.6049196     2.2436039
H           3.0068332    -2.7499010     0.9651030
H           1.2910444    -2.4084353     1.2616867
C          -1.1447773    -0.4956650    -1.1344905
H          -1.8589604    -1.0707873    -1.7179250
C           5.9586734     0.8824276    -0.9137083
H           6.8985937     1.3338050    -1.2174512
C           5.9130661    -0.0258759     0.1420303
H           6.8237459    -0.2879526     0.6753124
C           0.1096463    -1.0371859    -0.8503937
H           0.3803196    -2.0250956    -1.2128520
C           4.7086487    -0.6066832     0.5408139
H           4.7103364    -1.2966630     1.3768380
C           3.5053810    -0.2934072    -0.1232925
C           3.5611179     0.6231182    -1.1958533
H           2.6533996     0.8712120    -1.7349724
C           4.7685159     1.1990558    -1.5750976
H           4.7782359     1.8992668    -2.4069270
27
005_C13H13N_0-6-7-22 (-45,) energy =    -557.9549394
C           0.7849668     0.9939088     0.2051947
H           1.5771374     1.5756923     0.6662248
C          -0.4589154     1.5718177    -0.0444502
H          -0.6292193     2.6102722     0.2278837
C          -1.4866815     0.8215987    -0.6200425
H          -2.4569981     1.2730366    -0.8067973
C           1.0273033    -0.3453361    -0.1386406
N           2.2814204    -0.9658642     0.1320908
C           2.2830480    -2.0796656     1.0726505
H           2.4618907    -1.7565152     2.1110602
H           3.0543429    -2.8079070     0.7999637
H           1.3121840    -2.5756284     1.0397273
C          -1.2537608    -0.5132127    -0.9562479
H          -2.0416418    -1.1056978    -1.4140577
C           5.9477218     0.9401005    -0.7963840
H           6.8893352     1.4205086    -1.0454904
C           5.8653896     0.0463255     0.2688277
H           6.7476005    -0.1747774     0.8646981
C          -0.0052445    -1.0906062    -0.7278607
H           0.1821033    -2.1210093    -1.0172384
C           4.6575343    -0.5718378     0.5973582
H           4.6277358    -1.2490082     1.4432467
C           3.4918176    -0.3112000    -0.1483925
C           3.5866655     0.5876240    -1.2325871
H           2.7084682     0.7889566    -1.8365812
C           4.7940065     1.2032089    -1.5416015
H           4.8350848     1.8884318    -2.3847704
27
005_C13H13N_0-6-7-22 (-30,) energy =    -557.9549304
C           0.8753032     1.0087886     0.0406799
H           1.7313834     1.6354301     0.2658971
C          -0.3637880     1.5926516    -0.1958232
H          -0.4507463     2.6758496    -0.1598386
C          -1.4906262     0.8084240    -0.4614570
H          -2.4567906     1.2705991    -0.6414552
C           1.0302636    -0.3939509     0.0075323
N           2.2731411    -0.9833021     0.2897127
C           2.3398528    -2.4249991     0.4946543
H           3.3356046    -2.6880227     0.8533898
H           2.1543941    -2.9920474    -0.4319576
H           1.6059255    -2.7401707     1.2443844
C          -1.3488707    -0.5770385    -0.4860924
H          -2.2091390    -1.2096586    -0.6909540
C           5.9502459     0.9482021    -0.5525845
H           6.8976525     1.4344967    -0.7673827
C           5.7544678     0.2920585     0.6639191
H           6.5481236     0.2709323     1.4062380
C          -0.1091024    -1.1775564    -0.2597057
H          -0.0346295    -2.2580116    -0.3017228
C           4.5346713    -0.3222635     0.9454744
H           4.3750568    -0.8070233     1.9046856
C           3.4952020    -0.3083913     0.0031991
C           3.7005371     0.3461234    -1.2216077
H           2.9029898     0.3572205    -1.9580341
C           4.9147816     0.9764488    -1.4894374
H           5.0566205     1.4784043    -2.4430880
27
005_C13H13N_0-6-7-22 (-15,) energy =    -557.9545337
C           0.9039949     0.9867395    -0.1229503
H           1.7804986     1.6179567    -0.0334356
C          -0.3480683     1.5715513    -0.2786265
H          -0.4183298     2.6558599    -0.3194743
C          -1.5040962     0.7918020    -0.3706785
H          -2.4784906     1.2559000    -0.4911479
C           1.0423231    -0.4171582    -0.0591500
N           2.2936564    -1.0218065     0.1171265
C           2.3616174    -2.4480174     0.4070148
H           3.3978643    -2.7188792     0.6105531
H           2.0164859    -3.0552487    -0.4434471
H           1.7523297    -2.7088065     1.2817597
C          -1.3781825    -0.5939477    -0.2997089
H          -2.2603968    -1.2261066    -0.3661765
C           5.9707923     1.0033131    -0.4463615
H           6.9189802     1.5127292    -0.5933988
C           5.7163399     0.3177391     0.7422727
H           6.4641231     0.2962211     1.5307548
C          -0.1294106    -1.1971400    -0.1481716
H          -0.0738347    -2.2784442    -0.1059675
C           4.4948149    -0.3273137     0.9367048
H           4.2896695    -0.8363358     1.8743966
C           3.5149393    -0.3153261    -0.0672758
C           3.7809120     0.3675710    -1.2648819
H           3.0311903     0.3714556    -2.0501362
C           4.9943766     1.0291968    -1.4451138
H           5.1839816     1.5524277    -2.3787661
27
005_C13H13N_0-6-7-22 (0,) energy =    -557.9538896
C           0.8903870     0.9191293     0.0987786
H           1.7672253     1.5514025     0.0277427
C          -0.3655277     1.5069522     0.2106749
H          -0.4341912     2.5918721     0.2359558
C          -1.5247931     0.7310983     0.2817682
H          -2.5015500     1.1975150     0.3696786
C           1.0297670    -0.4852495     0.0561733
N           2.2851706    -1.1016159    -0.0464821
C           2.3532455    -2.5303306    -0.3257483
H           3.4003296    -2.8201441    -0.4192237
H           1.8268737    -2.8024811    -1.2521330
H           1.9168808    -3.1137219     0.4960661
C          -1.3978727    -0.6556247     0.2316266
H          -2.2823799    -1.2863126     0.2791612
C           5.9275387     1.0535799    -0.2057688
H           6.8680471     1.5962828    -0.2403654
C           5.1090122     1.1342964     0.9235230
H           5.4149697     1.7345541     1.7763881
C          -0.1467981    -1.2618027     0.1197677
H          -0.0945468    -2.3432844     0.0840661
C           3.9079481     0.4287497     0.9760476
H           3.2822815     0.4694847     1.8625149
C           3.4949622    -0.3528089    -0.1140401
C           4.3161046    -0.4220552    -1.2487534
H           3.9975781    -1.0130412    -2.1029492
C           5.5282240     0.2683235    -1.2878949
H           6.1541811     0.2014969    -2.1739126
27
005_C13H13N_0-6-7-22 (15,) energy =    -557.9545342
C           0.8636157     0.9444402    -0.0551435
H           1.7223516     1.5747134    -0.2553306
C          -0.3829893     1.5276091     0.1447019
H          -0.4668831     2.6110578     0.1070963
C          -1.5176987     0.7462997     0.3789578
H          -2.4881230     1.2088162     0.5329709
C           1.0180682    -0.4587618    -0.0208373
N           2.2627529    -1.0635621    -0.2390789
C           2.3295080    -2.5056414    -0.4359510
H           3.3507534    -2.7802335    -0.7009272
H           1.6581419    -2.8315106    -1.2405473
H           2.0603871    -3.0562900     0.4781126
C          -1.3761673    -0.6394913     0.4060070
H          -2.2419643    -1.2726734     0.5843095
C           5.9400715     1.0334883    -0.0951599
H           6.8885534     1.5616653    -0.0552392
C           5.0360632     1.1263945     0.9658128
H           5.2829434     1.7214248     1.8412683
C          -0.1323147    -1.2407005     0.2121552
H          -0.0630301    -2.3214103     0.2502939
C           3.8230951     0.4411501     0.9230973
H           3.1305161     0.4978642     1.7572534
C           3.4835998    -0.3342469    -0.1971777
C           4.3904496    -0.4134348    -1.2647820
H           4.1276289    -0.9943870    -2.1444689
C           5.6127202     0.2564567    -1.2072107
H           6.3033294     0.1819627    -2.0431866
27
005_C13H13N_0-6-7-22 (30,) energy =    -557.9549304
C           0.8335315     0.9125676    -0.2255504
H           1.6588134     1.5337001    -0.5562744
C          -0.3981547     1.4932142     0.0536932
H          -0.5100077     2.5691248    -0.0562085
C          -1.4873626     0.7137276     0.4553723
H          -2.4481893     1.1730672     0.6682078
C           1.0195705    -0.4810976    -0.0995424
N           2.2520227    -1.0705403    -0.4241384
C           2.3344610    -2.5223676    -0.5257502
H           3.3085280    -2.7961295    -0.9327387
H           1.5575391    -2.9045553    -1.1968670
H           2.2247971    -3.0207035     0.4510678
C          -1.3154373    -0.6635634     0.5725130
H          -2.1461771    -1.2922639     0.8837042
C           5.9373517     0.9760452     0.0117496
H           6.8869790     1.4918674     0.1227007
C           4.9686582     1.0587000     1.0144545
H           5.1654509     1.6332710     1.9159455
C          -0.0820404    -1.2600621     0.3045215
H           0.0176195    -2.3329966     0.4210629
C           3.7522042     0.3911253     0.8802411
H           3.0074748     0.4453976     1.6682408
C           3.4766501    -0.3569506    -0.2752272
C           4.4486926    -0.4256528    -1.2847241
H           4.2334532    -0.9837754    -2.1917555
C           5.6719323     0.2270860    -1.1360271
H           6.4127139     0.1623909    -1.9287765
27
005_C13H13N_0-6-7-22 (45,) energy =    -557.9549401
C           0.7348388     0.8830440    -0.3837414
H           1.4811343     1.4398492    -0.9419562
C          -0.5013830     1.4580852    -0.0925457
H          -0.7119130     2.4693467    -0.4310441
C          -1.4708252     0.7383276     0.6092816
H          -2.4356552     1.1869876     0.8283534
C           1.0288754    -0.4211462     0.0438164
N           2.2744184    -1.0415279    -0.2656410
C           2.2335395    -2.2175102    -1.1265679
H           2.3329768    -1.9640287    -2.1945150
H           1.2776969    -2.7250766    -0.9908464
H           3.0366679    -2.9128946    -0.8601930
C          -1.1866601    -0.5623122     1.0296885
H          -1.9281167    -1.1304915     1.5854040
C           5.9527378     0.9914010     0.2575559
H           6.8982091     1.5054289     0.4036500
C           4.8476179     1.2901647     1.0606858
H           4.9313980     2.0378456     1.8456192
C           0.0555374    -1.1350017     0.7591412
H           0.2850168    -2.1365201     1.1125287
C           3.6358598     0.6325633     0.8839309
H           2.7970836     0.8635650     1.5317572
C           3.4865988    -0.3470483    -0.1213300
C           4.6036115    -0.6432721    -0.9259442
H           4.5308494    -1.3825214    -1.7153859
C           5.8171491     0.0185437    -0.7300978
H           6.6608657    -0.2319018    -1.3685601
27
005_C13H13N_0-6-7-22 (60,) energy =    -557.9544563
C           0.6183837     0.8477872    -0.5189282
H           1.2850751     1.3783255    -1.1924412
C          -0.6112103     1.3979258    -0.1591867
H          -0.9043657     2.3647116    -0.5600846
C          -1.4718126     0.7037490     0.6948810
H          -2.4329494     1.1305732     0.9678921
C           1.0133897    -0.3975943    -0.0080960
N           2.2491294    -0.9927495    -0.4021460
C           2.1900196    -2.1538206    -1.2786169
H           2.3711712    -1.8948772    -2.3342403
H           1.1958693    -2.5979674    -1.2072027
H           2.9289325    -2.9066670    -0.9794182
C          -1.0887245    -0.5413194     1.1962162
H          -1.7490059    -1.0859856     1.8659868
C           5.9639421     0.8901496     0.3502542
H           6.9182891     1.3681828     0.5505798
C           4.8181260     1.2581768     1.0613984
H           4.8777377     2.0260680     1.8289529
C           0.1497275    -1.0860947     0.8543128
H           0.4607589    -2.0458395     1.2577800
C           3.5929650     0.6487956     0.8144654
H           2.7216277     0.9391129     1.3911150
C           3.4731127    -0.3552546    -0.1710529
C           4.6321225    -0.7207007    -0.8856072
H           4.5835318    -1.4796072    -1.6580565
C           5.8554115    -0.1046083    -0.6194716
H           6.7305433    -0.4086409    -1.1887954
27
005_C13H13N_0-6-7-22 (75,) energy =    -557.9536566
C           0.4777420     0.8700669    -0.6042957
H           1.0467368     1.4216264    -1.3469560
C          -0.7371137     1.3612514    -0.1268743
H          -1.1188040     2.3076043    -0.5009076
C          -1.4709212     0.6319674     0.8119008
H          -2.4218663     1.0111487     1.1758872
C           0.9840368    -0.3481798    -0.1302881
N           2.2072907    -0.8670610    -0.6525107
C           2.1550308    -2.1142891    -1.4032078
H           2.5544901    -1.9889933    -2.4195563
H           1.1135406    -2.4271745    -1.4900680
H           2.7235927    -2.9171785    -0.9122609
C          -0.9770838    -0.5872178     1.2787099
H          -1.5401380    -1.1590233     2.0116722
C           5.9644482     0.7569346     0.4315687
H           6.9285598     1.1733621     0.7080600
C           4.7846532     1.2556202     0.9892260
H           4.8250715     2.0661194     1.7130771
C           0.2479667    -1.0717422     0.8174964
H           0.6435721    -2.0119051     1.1920155
C           3.5450049     0.7274225     0.6432636
H           2.6475067     1.1261071     1.1020993
C           3.4457684    -0.3271129    -0.2902696
C           4.6415369    -0.8294097    -0.8456540
H           4.6140467    -1.6390706    -1.5655936
C           5.8757501    -0.2896915    -0.4847624
H           6.7777280    -0.6995142    -0.9330688
27
005_C13H13N_0-6-7-22 (90,) energy =    -557.9532333
C           0.3568333     0.8600451    -0.6813149
H           0.8117127     1.3824638    -1.5178232
C          -0.8510122     1.2968837    -0.1350151
H          -1.3450969     2.1718383    -0.5490039
C          -1.4274996     0.6067909     0.9333157
H          -2.3705101     0.9443004     1.3547377
C           1.0023222    -0.2659593    -0.1566507
N           2.2230307    -0.7276757    -0.7469623
C           2.1572774    -1.9444490    -1.5447229
H           2.7015007    -1.8243971    -2.4903431
H           1.1119537    -2.1483480    -1.7825338
H           2.5739430    -2.8196487    -1.0218727
C          -0.7885169    -0.5181312     1.4588349
H          -1.2315459    -1.0572796     2.2920312
C           5.9714401     0.7322096     0.5738198
H           6.9329488     1.1106738     0.9079896
C           4.7812381     1.3090757     1.0236362
H           4.8104657     2.1454956     1.7179562
C           0.4246362    -0.9499617     0.9207419
H           0.9335341    -1.8170740     1.3327949
C           3.5447392     0.8308329     0.6020329
H           2.6372665     1.2955606     0.9704318
C           3.4600364    -0.2531437    -0.2987794
C           4.6655553    -0.8357833    -0.7433968
H           4.6495753    -1.6760882    -1.4276008
C           5.8962186    -0.3423299    -0.3107942
H           6.8062737    -0.8140915    -0.6738578
27
005_C13H13N_0-6-7-22 (105,) energy =    -557.9535597
C           0.2056369     0.7153554    -0.8218630
H           0.5527364     1.1636404    -1.7483985
C          -1.0033820     1.1085049    -0.2444762
H          -1.6088589     1.8712255    -0.7268864
C          -1.4293531     0.5290297     0.9519209
H          -2.3691540     0.8370202     1.4021731
C           0.9917187    -0.2684863    -0.2113641
N           2.2152625    -0.6876867    -0.8282964
C           2.1400546    -1.8211514    -1.7383611
H           2.7927492    -1.6671005    -2.6060665
H           1.1131774    -1.9106119    -2.0980740
H           2.4231200    -2.7739273    -1.2618405
C          -0.6423993    -0.4450872     1.5710282
H          -0.9689318    -0.8974631     2.5037202
C           5.9527859     0.6133255     0.6717253
H           6.9118117     0.9538609     1.0508509
C           4.7686059     1.2542673     1.0454214
H           4.8008751     2.1054243     1.7214226
C           0.5635794    -0.8423703     0.9930772
H           1.1843289    -1.5956625     1.4701677
C           3.5361045     0.8259875     0.5638199
H           2.6325892     1.3455060     0.8631216
C           3.4493134    -0.2735270    -0.3179050
C           4.6473176    -0.9206761    -0.6854327
H           4.6270713    -1.7786051    -1.3475218
C           5.8751686    -0.4740564    -0.1966929
H           6.7803673    -0.9949505    -0.4997628
27
005_C13H13N_0-6-7-22 (120,) energy =    -557.9543624
C           0.1334595     0.5365669    -0.9030120
H           0.3929103     0.8753447    -1.9022600
C          -1.0975235     0.8704535    -0.3366088
H          -1.8058789     1.4690765    -0.9032660
C          -1.4103734     0.4545496     0.9586485
H          -2.3654291     0.7220708     1.4023104
C           1.0551488    -0.2389791    -0.1874976
N           2.2956712    -0.6057072    -0.7927338
C           2.2577350    -1.6233937    -1.8333376
H           2.9512911    -1.3757731    -2.6455841
H           1.2475564    -1.6667053    -2.2443393
H           2.5148510    -2.6260204    -1.4550984
C          -0.4868720    -0.3030087     1.6832731
H          -0.7239950    -0.6314706     2.6918365
C           6.0033908     0.6022792     0.8511466
H           6.9549612     0.9199841     1.2670436
C           4.8206593     1.2667052     1.1883459
H           4.8475975     2.1144105     1.8688392
C           0.7364969    -0.6541733     1.1135674
H           1.4551356    -1.2486670     1.6702092
C           3.5977949     0.8700019     0.6585604
H           2.6959154     1.4114443     0.9219322
C           3.5189269    -0.2235288    -0.2312423
C           4.7151276    -0.8906776    -0.5652308
H           4.6987547    -1.7427491    -1.2350784
C           5.9348671    -0.4746473    -0.0305006
H           6.8392799    -1.0109875    -0.3076938
27
005_C13H13N_0-6-7-22 (135,) energy =    -557.9549238
C           0.0112962     0.4209153    -0.9525455
H           0.1847577     0.6886760    -1.9912270
C          -1.2191304     0.6878962    -0.3528687
H          -2.0084273     1.1549433    -0.9361874
C          -1.4306189     0.3784855     0.9918913
H          -2.3860746     0.5957839     1.4610238
C           1.0444901    -0.1823298    -0.2201148
N           2.2798166    -0.4877541    -0.8625736
C           2.2424417    -1.4670638    -1.9418896
H           2.9907649    -1.2243082    -2.7040543
H           1.2559450    -1.4454740    -2.4069998
H           2.4273654    -2.4943264    -1.5882272
C          -0.4005423    -0.2088365     1.7300630
H          -0.5545130    -0.4592349     2.7765616
C           6.0013659     0.4805841     0.9113330
H           6.9569081     0.7395139     1.3578448
C           4.8567265     1.2341691     1.1893719
H           4.9188792     2.0936361     1.8524308
C           0.8243605    -0.4968248     1.1300223
H           1.6188203    -0.9655113     1.7026296
C           3.6312523     0.9124655     0.6176249
H           2.7602506     1.5231501     0.8295331
C           3.5088115    -0.1932480    -0.2513468
C           4.6656054    -0.9475676    -0.5274643
H           4.6156193    -1.8099786    -1.1822597
C           5.8912824    -0.6062067     0.0469303
H           6.7657820    -1.2091583    -0.1852734
27
005_C13H13N_0-6-7-22 (150,) energy =    -557.9549447
C          -0.1153659    -0.0203014    -0.8725533
H          -0.0626094     0.0041470    -1.9549755
C          -1.3396408     0.2303439    -0.2499951
H          -2.2107327     0.4354922    -0.8674863
C          -1.4518116     0.2297500     1.1383911
H          -2.4058539     0.4284339     1.6178320
C           1.0364125    -0.2885291    -0.1086092
N           2.2641943    -0.6006063    -0.7168538
C           2.2922808    -0.8599828    -2.1513178
H           3.2720438    -1.2542010    -2.4239063
H           2.1163541     0.0487161    -2.7497685
H           1.5326738    -1.6021860    -2.4184814
C          -0.3119295    -0.0367890     1.9035467
H          -0.3766588    -0.0546482     2.9887237
C           5.9812015     0.3867757     1.0650417
H           6.9384684     0.6375305     1.5133393
C           4.9267935     1.3021036     1.0933111
H           5.0635547     2.2754253     1.5574923
C           0.9111071    -0.2985766     1.2972482
H           1.7788628    -0.5246093     1.9076162
C           3.6995877     0.9874210     0.5114894
H           2.8869060     1.7070457     0.5230322
C           3.5007325    -0.2637095    -0.0934132
C           4.5597987    -1.1842555    -0.1072915
H           4.4066202    -2.1635260    -0.5523548
C           5.7913591    -0.8559451     0.4580468
H           6.5996974    -1.5822861     0.4379183
27
005_C13H13N_0-6-7-22 (165,) energy =    -557.9546195
C          -0.1489844    -0.1445072    -0.8974188
H          -0.1206827    -0.2145370    -1.9783884
C          -1.3817459     0.0266642    -0.2667931
H          -2.2796849     0.0786072    -0.8777789
C          -1.4721593     0.1334100     1.1193095
H          -2.4342653     0.2685131     1.6045691
C           1.0420584    -0.2116469    -0.1455986
N           2.2761477    -0.4272731    -0.7732747
C           2.3060883    -0.7568727    -2.1922801
H           3.3310963    -0.9918152    -2.4798710
H           1.9656069     0.0829924    -2.8171097
H           1.6724668    -1.6250622    -2.4123123
C          -0.2971520     0.0559942     1.8720985
H          -0.3406638     0.1217154     2.9565712
C           6.0058523     0.2714965     1.1092464
H           6.9671121     0.4519673     1.5820959
C           5.0141471     1.2550833     1.1296084
H           5.2043707     2.2104972     1.6117375
C           0.9389390    -0.1193639     1.2598329
H           1.8312111    -0.1990171     1.8701245
C           3.7834832     1.0312843     0.5146173
H           3.0211277     1.8042775     0.5144791
C           3.5159828    -0.1949550    -0.1148522
C           4.5116095    -1.1834979    -0.1209287
H           4.3059487    -2.1430480    -0.5872259
C           5.7493178    -0.9458935     0.4768058
H           6.5089100    -1.7231332     0.4607781
27
005_C13H13N_0-6-7-22 (180,) energy =    -557.9539409
C          -0.1337993    -0.3564206    -0.8804291
H          -0.1166399    -0.3572406    -1.9636089
C          -1.3641906    -0.4546125    -0.2309227
H          -2.2680069    -0.5279059    -0.8310190
C          -1.4464895    -0.4558134     1.1599623
H          -2.4071577    -0.5325291     1.6605055
C           1.0670135    -0.2661475    -0.1448781
N           2.2994554    -0.1561290    -0.8045249
C           2.3163473     0.0758130    -2.2430537
H           3.3515355     0.1771552    -2.5703234
H           1.7649001     0.9837697    -2.5270163
H           1.8758449    -0.7719410    -2.7849239
C          -0.2638315    -0.3472021     1.8952978
H          -0.2984300    -0.3294375     2.9819858
C           6.0118147     0.0804188     1.2199850
H           6.9698638     0.1348189     1.7293198
C           5.5855707     1.1323032     0.4082800
H           6.2081076     2.0149858     0.2872300
C           0.9717579    -0.2483210     1.2638769
H           1.8674097    -0.1440412     1.8643846
C           4.3510179     1.0679988    -0.2390645
H           4.0120892     1.8998834    -0.8501424
C           3.5330799    -0.0627623    -0.0999410
C           3.9731408    -1.1228643     0.7080196
H           3.3504102    -2.0072074     0.8031631
C           5.1970044    -1.0444311     1.3704759
H           5.5233336    -1.8744012     1.9917528
