23
414_C8H11N3O_0-1-11-10 (-165,) energy =    -550.9704354
C           1.6732270    -1.6959668     0.4882177
N           2.0793448    -0.3534388     0.4358214
C           1.0802375     0.6935998     0.1944479
H           0.5287451     0.9611602     1.1070943
C           5.9164024     1.0749997     1.2456021
H           1.5922633     1.5894786    -0.1470896
H           6.8834055     1.5171641     1.4632316
C           4.7716504     1.8596469     1.1761395
H           0.3805258     0.3518747    -0.5714568
H           4.8228132     2.9357348     1.3366001
N           3.5521019     1.3732395     0.9211086
C           3.4117464     0.0580557     0.7071947
C           4.5117021    -0.8247833     0.7380667
H           4.3692883    -1.8761085     0.5458987
C           5.7648379    -0.2947233     1.0179149
H           6.6260223    -0.9573864     1.0472927
N           0.3040760    -1.8849797     0.4839747
H          -0.2811062    -1.1445833     0.8422901
C          -0.2050663    -3.2397749     0.6444974
H          -1.2763648    -3.2376131     0.4257804
H          -0.0426671    -3.6369079     1.6554550
H           0.3039845    -3.8982952    -0.0606403
O           2.4402970    -2.6534696     0.5029497
23
414_C8H11N3O_0-1-11-10 (-150,) energy =    -550.9702621
C           1.6738885    -1.7016395     0.5148931
N           2.0868004    -0.3715301     0.3411160
C           1.0998968     0.6753090     0.0633495
H           0.5531618     0.9918678     0.9627502
C           5.8773096     1.0527239     1.3196938
H           1.6187826     1.5507133    -0.3213234
H           6.8337678     1.4902453     1.5878807
C           4.7106267     1.8072288     1.3678966
H           0.3957155     0.3105746    -0.6884913
H           4.7355268     2.8523294     1.6733569
N           3.5006921     1.3239682     1.0617660
C           3.4030584     0.0472692     0.6702590
C           4.5242321    -0.7990431     0.5666725
H           4.4049372    -1.8203398     0.2399438
C           5.7660929    -0.2773156     0.9067408
H           6.6477822    -0.9090497     0.8361740
N           0.3060464    -1.8942511     0.4832572
H          -0.2903459    -1.1269406     0.7564219
C          -0.2067310    -3.2306583     0.7517956
H          -1.2730820    -3.2494469     0.5108290
H          -0.0660179    -3.5368136     1.7969455
H           0.3170092    -3.9481725     0.1184596
O           2.4447953    -2.6470602     0.6439221
23
414_C8H11N3O_0-1-11-10 (-135,) energy =    -550.9694240
C           1.2245164    -1.3284676     0.2596134
N           2.0533174    -0.2445729    -0.0909148
C           1.4449046     0.7722159    -0.9580092
H           0.9542834     1.5591523    -0.3756514
C           5.6213898     0.8759044     1.7284464
H           2.2232627     1.2301598    -1.5713738
H           6.5327726     1.2326242     2.1973658
C           4.5999576     1.7606265     1.3916475
H           0.7130694     0.2703058    -1.5880671
H           4.7045742     2.8262676     1.5902443
N           3.4461410     1.3894374     0.8250173
C           3.2663408     0.0907528     0.5456099
C           4.2546783    -0.8790975     0.8092587
H           4.0973490    -1.9116258     0.5200456
C           5.4353588    -0.4737255     1.4202493
H           6.2134866    -1.2028080     1.6304471
N           1.6252400    -2.0954418     1.3311493
H           2.2567955    -1.6786627     2.0006630
C           0.7237621    -3.1245504     1.8278520
H          -0.1497606    -2.7081099     2.3475637
H           1.2751376    -3.7719036     2.5154586
H           0.3631730    -3.7178316     0.9864371
O           0.2047556    -1.5818191    -0.3707837
23
414_C8H11N3O_0-1-11-10 (-120,) energy =    -550.9682728
C           1.2049592    -1.3023259     0.2591541
N           2.0795960    -0.2896090    -0.1812698
C           1.4769496     0.7298051    -1.0497987
H           0.9593676     1.5044356    -0.4739414
C           5.5647516     0.8478439     1.7836083
H           2.2665290     1.2005449    -1.6391928
H           6.4520119     1.2029276     2.2980882
C           4.4938708     1.7056709     1.5399346
H           0.7665389     0.2292918    -1.7055010
H           4.5357328     2.7453105     1.8611839
N           3.3643699     1.3336111     0.9260567
C           3.2699816     0.0688176     0.4950309
C           4.3065204    -0.8676321     0.6640245
H           4.1992524    -1.8700610     0.2645863
C           5.4604399    -0.4689202     1.3303067
H           6.2772959    -1.1714852     1.4725475
N           1.6351584    -2.0749655     1.3154564
H           2.3433413    -1.6921222     1.9253667
C           0.7123441    -3.0364438     1.8998718
H          -0.0791211    -2.5588044     2.4935292
H           1.2759593    -3.7208848     2.5401740
H           0.2365112    -3.6032724     1.0985446
O           0.1341211    -1.5054524    -0.3005165
23
414_C8H11N3O_0-1-11-10 (-105,) energy =    -550.9666284
C           1.1812582    -1.2870098     0.2679425
N           2.0955711    -0.3444181    -0.2413788
C           1.5286851     0.6703303    -1.1384130
H           1.0961020     1.5103165    -0.5840095
C           5.5179437     0.7947331     1.8342983
H           2.3217032     1.0466518    -1.7900691
H           6.3850862     1.1440675     2.3859859
C           4.3835120     1.5977285     1.7157735
H           0.7545508     0.1905256    -1.7349226
H           4.3559786     2.5842787     2.1758801
N           3.2745979     1.2279921     1.0647412
C           3.2700575     0.0293712     0.4667122
C           4.3669886    -0.8457272     0.5106168
H           4.3151192    -1.7962211    -0.0095297
C           5.5022775    -0.4566872     1.2168332
H           6.3670865    -1.1127608     1.2678150
N           1.6181029    -2.0452454     1.3307913
H           2.3890474    -1.6973120     1.8816868
C           0.6872819    -2.9500094     1.9861284
H          -0.0306061    -2.4260887     2.6323039
H           1.2537572    -3.6651151     2.5895669
H           0.1238713    -3.4894630     1.2236768
O           0.0822621    -1.4560832    -0.2468581
23
414_C8H11N3O_0-1-11-10 (-90,) energy =    -550.9656411
C           1.1811430    -1.2869490     0.3566556
N           1.8954911    -0.1148687     0.0414969
C           1.7505256     0.3516699    -1.3388172
H           2.1055497     1.3836767    -1.3977700
C           5.5231942     0.7792483     1.8914545
H           2.3001387    -0.2635531    -2.0649503
H           6.4361033     1.0585541     2.4082301
C           4.2786965     1.1179055     2.4191529
H           0.6940055     0.3132372    -1.6047142
H           4.2067119     1.6623950     3.3591141
N           3.1140080     0.8267121     1.8237753
C           3.1517449     0.1396138     0.6757637
C           4.3521782    -0.2598580     0.0714093
H           4.3341486    -0.8227829    -0.8560927
C           5.5544856     0.0713786     0.6892567
H           6.5002480    -0.2251830     0.2437101
N           1.3719991    -1.7361278     1.6430609
H           1.6881029    -1.0438020     2.3111077
C           0.5490773    -2.8233948     2.1457291
H          -0.4647711    -2.4986312     2.4193419
H           1.0312200    -3.2610778     3.0247537
H           0.4605515    -3.5841536     1.3687670
O           0.4506511    -1.8405730    -0.4561477
23
414_C8H11N3O_0-1-11-10 (-75,) energy =    -550.9691281
C           1.1819415    -1.2967671     0.3721944
N           1.9463956    -0.1563842     0.0083662
C           1.8234086     0.2081513    -1.4061751
H           2.2895185     1.1851196    -1.5543382
C           5.5533736     0.7780125     1.8751428
H           2.2792654    -0.5243900    -2.0855391
H           6.4567551     1.0635547     2.4045247
C           4.3085620     0.8715687     2.4940330
H           0.7635005     0.2688652    -1.6537284
H           4.2258017     1.2275397     3.5195109
N           3.1536832     0.5671519     1.8901680
C           3.1979465     0.0964937     0.6343251
C           4.4046247    -0.0479461    -0.0683277
H           4.4075203    -0.4364001    -1.0807283
C           5.5933226     0.3038533     0.5636201
H           6.5398979     0.1993789     0.0400399
N           1.3109633    -1.6812502     1.6781747
H           1.6883477    -0.9887579     2.3147797
C           0.4645048    -2.7342673     2.2095535
H          -0.5427277    -2.3775978     2.4672573
H           0.9315525    -3.1529613     3.1058175
H           0.3624481    -3.5187115     1.4579177
O           0.4641853    -1.8631296    -0.4430448
23
414_C8H11N3O_0-1-11-10 (-60,) energy =    -550.9726544
C           1.0002915    -1.4186958     0.2369378
N           1.8266505    -0.3292987    -0.1742640
C           1.7685923    -0.0610199    -1.6134719
H           2.1914098     0.9286883    -1.8019157
C           5.2529718     0.8725714     1.8692922
H           2.3025457    -0.8091683    -2.2144566
H           6.1044960     1.2186027     2.4459440
C           3.9982984     0.7468782     2.4598578
H           0.7237747    -0.0784287    -1.9205205
H           3.8542642     0.9895698     3.5112817
N           2.9020229     0.3559264     1.8012163
C           3.0162286     0.0155776     0.5054107
C           4.2460383     0.0948427    -0.1732836
H           4.3215202    -0.1951920    -1.2145893
C           5.3685070     0.5325352     0.5208887
H           6.3273399     0.5967838     0.0133181
N           1.0329243    -1.7137417     1.5652998
H           1.4477015    -1.0184843     2.1767825
C           0.1508018    -2.7283975     2.1104562
H           0.5756650    -3.1104740     3.0433871
H           0.0623993    -3.5464373     1.3935428
H          -0.8584219    -2.3430550     2.3128156
O           0.3142260    -2.0175069    -0.5835896
23
414_C8H11N3O_0-1-11-10 (-45,) energy =    -550.9751915
C           0.8930693    -1.3844194     0.2306408
N           1.8135654    -0.3829372    -0.2155487
C           1.7492111    -0.1166673    -1.6539806
H           2.1110484     0.8966920    -1.8454504
C           5.2026531     0.8757962     1.8570133
H           2.3367295    -0.8311617    -2.2461788
H           6.0466735     1.2246206     2.4426033
C           3.9833282     0.5924867     2.4634236
H           0.7101966    -0.2041743    -1.9647074
H           3.8569628     0.7128520     3.5379356
N           2.8978123     0.1828519     1.7983322
C           2.9826893    -0.0090736     0.4691731
C           4.1832045     0.2370583    -0.2295464
H           4.2504153     0.0626224    -1.2960265
C           5.2920752     0.6851307     0.4768632
H           6.2243515     0.8742946    -0.0487234
N           0.9143317    -1.6810607     1.5547505
H           1.4272292    -1.0490358     2.1617933
C          -0.0457164    -2.6238740     2.0979229
H           0.2698485    -2.9014853     3.1072439
H          -0.0804431    -3.5201555     1.4741354
H          -1.0605468    -2.2062396     2.1446137
O           0.1384522    -1.9225630    -0.5730430
23
414_C8H11N3O_0-1-11-10 (-30,) energy =    -550.9766994
C           0.8425432    -1.3826656     0.2515904
N           1.8345289    -0.4668668    -0.2382949
C           1.7535266    -0.2081474    -1.6770285
H           2.0052660     0.8373579    -1.8760269
C           5.2074139     0.8726567     1.8154288
H           2.4237853    -0.8573654    -2.2558911
H           6.0509260     1.2294954     2.3966347
C           4.0440017     0.4391850     2.4393695
H           0.7326396    -0.4117401    -1.9905963
H           3.9589191     0.4469703     3.5245869
N           2.9631961     0.0039669     1.7826610
C           2.9886151    -0.0514199     0.4376872
C           4.1362790     0.3561546    -0.2811515
H           4.1701547     0.2944114    -1.3606686
C           5.2405547     0.8196631     0.4201159
H           6.1282766     1.1310372    -0.1241215
N           0.8550607    -1.6552116     1.5766559
H           1.4839213    -1.1131517     2.1627033
C          -0.1388614    -2.5522593     2.1353212
H           0.0827363    -2.6939394     3.1961388
H          -0.1124779    -3.5239517     1.6323492
H          -1.1541815    -2.1499642     2.0329784
O           0.0317845    -1.8766469    -0.5267665
23
414_C8H11N3O_0-1-11-10 (-15,) energy =    -550.9774312
C           0.8374171    -1.3978401     0.2620593
N           1.8946397    -0.5676127    -0.2530647
C           1.8187186    -0.3172292    -1.6936246
H           1.9368859     0.7515647    -1.8990785
C           5.2092754     0.8818441     1.8269207
H           2.5875656    -0.8752301    -2.2427863
H           6.0426312     1.2535139     2.4133104
C           4.1044928     0.3061361     2.4402440
H           0.8402668    -0.6519562    -2.0281886
H           4.0543259     0.2149640     3.5238045
N           3.0421361    -0.1628661     1.7765789
C           3.0194363    -0.0982537     0.4317794
C           4.1082685     0.4651114    -0.2779826
H           4.1105490     0.5109428    -1.3580884
C           5.1958558     0.9524841     0.4317832
H           6.0351860     1.3834002    -0.1077073
N           0.8491034    -1.6710540     1.5854119
H           1.5527171    -1.2090154     2.1563911
C          -0.2063496    -2.4841427     2.1593420
H           0.0240793    -2.6516691     3.2145104
H          -0.2745858    -3.4506502     1.6502362
H          -1.1849166    -1.9949744     2.0810441
O          -0.0249011    -1.8286546    -0.4989306
23
414_C8H11N3O_0-1-11-10 (0,) energy =    -550.9776527
C           0.8454190    -1.4094227     0.2795595
N           1.9421491    -0.6619599    -0.2817862
C           1.8581593    -0.4594347    -1.7294600
H           1.8177981     0.6081378    -1.9743869
C           5.2227868     0.9363001     1.7454488
H           2.7171041    -0.9112433    -2.2388138
H           6.0553837     1.3323285     2.3167156
C           4.2049208     0.2244841     2.3654293
H           0.9443383    -0.9408460    -2.0677746
H           4.2227140     0.0495476     3.4396666
N           3.1524422    -0.2893266     1.7193840
C           3.0443977    -0.1235608     0.3873566
C           4.0386678     0.5903008    -0.3275272
H           3.9694095     0.7332487    -1.3965353
C           5.1210710     1.1141224     0.3634849
H           5.8857415     1.6621590    -0.1807191
N           0.8648444    -1.6429472     1.6095859
H           1.6448147    -1.2686380     2.1451203
C          -0.2223733    -2.3812679     2.2238031
H          -0.0323200    -2.4410475     3.2983793
H          -0.2952708    -3.3962264     1.8172668
H          -1.1849512    -1.8850731     2.0575727
O          -0.0581697    -1.8078082    -0.4509117
23
414_C8H11N3O_0-1-11-10 (15,) energy =    -550.9774212
C           0.8533494    -1.4313690     0.2168599
N           1.9982721    -0.7594996    -0.3390841
C           1.9425356    -0.5691073    -1.7897360
H           1.7558916     0.4795110    -2.0534996
C           5.2132282     0.8986671     1.7419133
H           2.8813972    -0.8924075    -2.2507838
H           6.0382485     1.2960184     2.3232452
C           4.2783589     0.0476574     2.3164018
H           1.1200060    -1.1735872    -2.1631028
H           4.3551497    -0.2361566     3.3644788
N           3.2446338    -0.4825142     1.6535906
C           3.0665111    -0.1812139     0.3534354
C           3.9671420     0.6861612    -0.3120931
H           3.8292519     0.9479294    -1.3519064
C           5.0365967     1.2179090     0.3934625
H           5.7291974     1.8862548    -0.1113299
N           0.8347354    -1.6253138     1.5546913
H           1.6745053    -1.3854336     2.0761389
C          -0.2757761    -2.3343623     2.1618479
H          -0.1816660    -2.2572628     3.2481336
H          -0.2900494    -3.3949794     1.8800271
H          -1.2275323    -1.8934651     1.8521543
O          -0.0582118    -1.7940552    -0.5219090
23
414_C8H11N3O_0-1-11-10 (30,) energy =    -550.9767078
C           0.8700985    -1.4335469     0.2045733
N           2.0600582    -0.8617157    -0.3602540
C           2.0080911    -0.6790285    -1.8119515
H           1.6860085     0.3322883    -2.0935936
C           5.2035541     0.9059978     1.7333001
H           2.9945932    -0.8748466    -2.2414871
H           6.0197447     1.3211237     2.3148333
C           4.3633910    -0.0611785     2.2713484
H           1.2828784    -1.3864647    -2.2064070
H           4.5078476    -0.4181088     3.2895359
N           3.3510844    -0.6252394     1.6035794
C           3.0943850    -0.2306704     0.3422683
C           3.8886412     0.7591277    -0.2816316
H           3.6741683     1.0952677    -1.2873101
C           4.9439899     1.3191075     0.4246101
H           5.5570469     2.0834209    -0.0456666
N           0.8551283    -1.6298722     1.5435207
H           1.7262618    -1.4902189     2.0479847
C          -0.3037237    -2.2400132     2.1676241
H          -0.1774803    -2.1914907     3.2522781
H          -0.4268201    -3.2890219     1.8695342
H          -1.2158479    -1.7043592     1.8893154
O          -0.0744458    -1.7186849    -0.5259254
23
414_C8H11N3O_0-1-11-10 (45,) energy =    -550.9751810
C           0.8723907    -1.4017495     0.1967085
N           2.1067128    -0.9439392    -0.3660479
C           2.0619410    -0.7550693    -1.8173293
H           1.6360598     0.2147150    -2.1080584
C           5.1873781     0.8942756     1.7537638
H           3.0746315    -0.8414692    -2.2191104
H           5.9964432     1.3188305     2.3386697
C           4.4475055    -0.1802658     2.2360852
H           1.4288572    -1.5339073    -2.2374094
H           4.6661526    -0.6107117     3.2117563
N           3.4549859    -0.7660693     1.5575893
C           3.1128065    -0.2754837     0.3521564
C           3.7960729     0.8228797    -0.2108223
H           3.5028436     1.2250555    -1.1723905
C           4.8398409     1.4011454     0.5001260
H           5.3715725     2.2507141     0.0797980
N           0.8537734    -1.6016897     1.5378500
H           1.7444622    -1.5839153     2.0247220
C          -0.3420091    -2.1244605     2.1717750
H          -0.2124059    -2.0694371     3.2557660
H          -0.5391855    -3.1666676     1.8886206
H          -1.2135934    -1.5295709     1.8855728
O          -0.0959609    -1.5987159    -0.5304317
23
414_C8H11N3O_0-1-11-10 (60,) energy =    -550.9726543
C           0.8980151    -1.3086375     0.2222529
N           2.1655267    -0.9741283    -0.3432468
C           2.1256792    -0.7771142    -1.7944997
H           1.6463604     0.1658329    -2.0897072
C           5.2123138     0.9231831     1.7727098
H           3.1480099    -0.8035407    -2.1791688
H           6.0215019     1.3564105     2.3514080
C           4.5904044    -0.2511296     2.1885492
H           1.5476634    -1.5899443    -2.2320368
H           4.9041227    -0.7498312     3.1039743
N           3.6092866    -0.8541678     1.5086071
C           3.1564929    -0.2758618     0.3824011
C           3.7118277     0.9199027    -0.1086620
H           3.3260564     1.3777159    -1.0118257
C           4.7516711     1.5157686     0.5963288
H           5.1904028     2.4415070     0.2335112
N           0.8837786    -1.4880046     1.5714787
H           1.7840817    -1.5942078     2.0269798
C          -0.3250560    -1.9381204     2.2355738
H          -0.2837481    -1.6501268     3.2901467
H          -0.4595108    -3.0270195     2.1709240
H          -1.1883163    -1.4630803     1.7663321
O          -0.0876745    -1.4261768    -0.4968964
23
414_C8H11N3O_0-1-11-10 (75,) energy =    -550.9691281
C           0.9297388    -1.2742414     0.1983315
N           2.2162920    -1.0439455    -0.3583014
C           2.2057240    -0.8705873    -1.8139234
H           1.7128291     0.0555739    -2.1382942
C           5.2071929     0.9581828     1.7429391
H           3.2379073    -0.8813750    -2.1719539
H           6.0100001     1.4169669     2.3111816
C           4.7449617    -0.3152659     2.0686015
H           1.6586745    -1.7042197    -2.2545617
H           5.1796512    -0.8652272     2.9015183
N           3.7818392    -0.9519134     1.3917704
C           3.1908802    -0.3099113     0.3723594
C           3.5760256     0.9808213    -0.0227705
H           3.0750622     1.4749765    -0.8478197
C           4.6011388     1.6154745     0.6719073
H           4.9153878     2.6154842     0.3850625
N           0.9069907    -1.4001100     1.5598310
H           1.7943035    -1.6001073     2.0069615
C          -0.3198038    -1.7927039     2.2295876
H          -0.2688486    -1.4902936     3.2796817
H          -0.5006483    -2.8757486     2.1800493
H          -1.1605657    -1.2880580     1.7508842
O          -0.0617207    -1.3595022    -0.5159221
23
414_C8H11N3O_0-1-11-10 (90,) energy =    -550.9656389
C           0.9357969    -1.2712108     0.1762493
N           2.2310062    -1.1123800    -0.3542565
C           2.2964054    -1.0121349    -1.8139572
H           1.9248355    -0.0527635    -2.2001109
C           5.1976071     0.9332155     1.7425011
H           3.3344190    -1.1505143    -2.1266031
H           5.9987860     1.4065953     2.3014800
C           4.9235508    -0.4230100     1.9098923
H           1.6786356    -1.8026123    -2.2406765
H           5.5061284    -1.0229771     2.6069537
N           3.9675075    -1.0770659     1.2366523
C           3.2107941    -0.3764135     0.3829949
C           3.3975116     0.9942200     0.1553207
H           2.7547702     1.5236047    -0.5404634
C           4.4110438     1.6546832     0.8437870
H           4.5784327     2.7169330     0.6871071
N           0.8890408    -1.3081847     1.5509593
H           1.7505549    -1.5706352     2.0142544
C          -0.3574766    -1.6612567     2.2099856
H          -0.3191727    -1.3293366     3.2516670
H          -0.5600861    -2.7413572     2.1867220
H          -1.1783028    -1.1535754     1.7014057
O          -0.0511625    -1.3737040    -0.5419263
23
414_C8H11N3O_0-1-11-10 (105,) energy =    -550.9666252
C           0.9164916    -1.2359645     0.0729696
N           2.0986378    -0.7585225    -0.5218495
C           2.4915296    -1.3946219    -1.7841741
H           3.0751057    -0.6820519    -2.3736957
C           5.2030717     0.9032567     1.6965026
H           3.0937601    -2.2943079    -1.6166856
H           6.0446772     1.2883252     2.2637600
C           5.2507458    -0.3741272     1.1382675
H           1.5806024    -1.6592332    -2.3187166
H           6.1330920    -0.9992555     1.2661948
N           4.2476553    -0.9188312     0.4399034
C           3.1490112    -0.1789508     0.2419169
C           3.0083689     1.1233932     0.7465911
H           2.1021993     1.6826722     0.5402030
C           4.0507160     1.6642757     1.4948285
H           3.9712838     2.6703510     1.8978391
N           0.7035837    -0.8672192     1.3832524
H           1.5011736    -0.5878354     1.9355214
C          -0.4314937    -1.4282153     2.0987206
H          -0.6197616    -0.8261429     2.9923349
H          -0.2710226    -2.4731797     2.3984019
H          -1.3080786    -1.3940194     1.4506061
O           0.0990199    -1.8929114    -0.5611226
23
414_C8H11N3O_0-1-11-10 (120,) energy =    -550.9682732
C           0.9199707    -1.1924550     0.0745111
N           2.1489758    -0.7852381    -0.4809325
C           2.5411374    -1.4749157    -1.7167737
H           3.2489641    -0.8459501    -2.2606196
C           5.2487245     0.9735059     1.6633749
H           3.0143270    -2.4416418    -1.5139860
H           6.0951093     1.3869125     2.2025708
C           5.3668597    -0.2302424     0.9711636
H           1.6418539    -1.6284623    -2.3108075
H           6.3124398    -0.7702283     0.9607841
N           4.3632141    -0.8059464     0.2987050
C           3.1833362    -0.1724079     0.2654931
C           2.9689256     1.0622266     0.9054495
H           2.0073197     1.5560016     0.8191215
C           4.0165016     1.6293838     1.6233577
H           3.8787299     2.5833642     2.1253692
N           0.6767549    -0.8202107     1.3781774
H           1.4685730    -0.5961540     1.9636772
C          -0.5107277    -1.3347146     2.0433071
H          -0.6819262    -0.7561776     2.9555069
H          -0.4243139    -2.3985491     2.3036516
H          -1.3674922    -1.2194016     1.3781063
O           0.0974371    -1.8131444    -0.5883647
23
414_C8H11N3O_0-1-11-10 (135,) energy =    -550.9694239
C           0.9084653    -1.1644457     0.0867289
N           2.1882169    -0.8565340    -0.4152072
C           2.5753007    -1.5500746    -1.6501380
H           3.2615212    -0.9163711    -2.2151810
C           5.2926835     1.0254381     1.6137798
H           3.0751073    -2.5014604    -1.4399350
H           6.1453767     1.4727218     2.1143829
C           5.4433253    -0.1200070     0.8361223
H           1.6677647    -1.7301028    -2.2232445
H           6.4226858    -0.5807218     0.7154138
N           4.4356432    -0.7314818     0.2030250
C           3.2085175    -0.2017052     0.3053698
C           2.9570793     0.9781198     1.0345449
H           1.9626066     1.4085501     1.0507374
C           4.0148266     1.5822946     1.7037074
H           3.8461847     2.4946705     2.2697086
N           0.6562800    -0.8220231     1.3968194
H           1.4469764    -0.6990355     2.0136845
C          -0.5908345    -1.2622515     2.0045964
H          -0.7294343    -0.7270423     2.9481148
H          -0.6099165    -2.3434289     2.1976250
H          -1.4168544    -1.0260315     1.3323892
O           0.0586707    -1.6977817    -0.6167481
23
414_C8H11N3O_0-1-11-10 (150,) energy =    -550.9702621
C           1.6434240    -1.6530837     0.3689940
N           2.0050454    -0.3113293     0.5658859
C           0.9716528     0.7247721     0.6401121
H           0.1613732     0.3752529     1.2848814
C           5.8901224     1.1485667     0.2027759
H           1.4105090     1.6249154     1.0649658
H           6.8734317     1.5936259     0.0878292
C           4.7398646     1.8804342    -0.0693954
H           0.5708391     0.9947538    -0.3471320
H           4.8049865     2.9157988    -0.4009300
N           3.5011997     1.3857697     0.0410950
C           3.3530340     0.1203309     0.4527735
C           4.4498399    -0.7025196     0.7749876
H           4.2889750    -1.7152256     1.1105321
C           5.7252221    -0.1696514     0.6350597
H           6.5891739    -0.7833841     0.8765698
N           0.2918434    -1.8689785     0.1817637
H          -0.2630254    -1.1198298    -0.2052693
C          -0.1536263    -3.2211716    -0.1247433
H           0.1617331    -3.5556025    -1.1220156
H          -1.2448564    -3.2507567    -0.0627270
H           0.2663508    -3.9108585     0.6089181
O           2.4369267    -2.5881568     0.3984799
23
414_C8H11N3O_0-1-11-10 (165,) energy =    -550.9704398
C           1.6406163    -1.6514821     0.4091682
N           2.0156012    -0.3009226     0.4824429
C           0.9781385     0.7360404     0.5166738
H           0.1582840     0.4010620     1.1556951
C           5.9152270     1.1695358     0.2714115
H           1.4113336     1.6475475     0.9205351
H           6.8991956     1.6222321     0.2019203
C           4.7651870     1.9354036     0.1236086
H           0.5936571     0.9739750    -0.4853942
H           4.8285684     3.0066722    -0.0627044
N           3.5263900     1.4354221     0.1896820
C           3.3692602     0.1252839     0.4220900
C           4.4698902    -0.7382914     0.6039776
H           4.3105779    -1.7853705     0.8059727
C           5.7453532    -0.1949020     0.5174690
H           6.6077537    -0.8424611     0.6537297
N           0.2935855    -1.8653127     0.1853490
H          -0.2291941    -1.1494848    -0.2977689
C          -0.1617719    -3.2347489    -0.0102621
H           0.2033722    -3.6727345    -0.9486859
H          -1.2550792    -3.2405917    -0.0103541
H           0.1998287    -3.8540286     0.8120412
O           2.4097981    -2.5951771     0.5613155
23
414_C8H11N3O_0-1-11-10 (180,) energy =    -550.9701773
C           1.6507107    -1.6116544     0.4314077
N           2.0337118    -0.2610687     0.3963763
C           0.9917233     0.7724216     0.3605168
H           0.1926837     0.5116602     1.0584184
C           5.9548449     1.1841300     0.3564506
H           1.4417195     1.7188215     0.6476244
H           6.9441381     1.6300148     0.3395776
C           4.8134755     1.9757960     0.3453286
H           0.5720022     0.8938633    -0.6487635
H           4.8879122     3.0621320     0.3201930
N           3.5696073     1.4853024     0.3604154
C           3.3924844     0.1581011     0.3966278
C           4.4859201    -0.7346992     0.4161775
H           4.3192758    -1.7987289     0.4625154
C           5.7671996    -0.1995850     0.3917008
H           6.6213175    -0.8718543     0.4049952
N           0.3084294    -1.8350783     0.1944235
H          -0.2068459    -1.1493190    -0.3372608
C          -0.1559519    -3.2116138     0.0975750
H           0.2225569    -3.7240691    -0.7968893
H          -1.2490319    -3.2089588     0.0764083
H           0.1841497    -3.7680249     0.9723653
O           2.4064722    -2.5445669     0.6842835
