23
414_C8H11N3O_16-0-1-11 (-165,) energy =    -550.9704603
C           1.6290445    -1.6675979     0.4058274
N           2.0141084    -0.3230363     0.5236115
C           0.9893433     0.7250694     0.5733745
H           0.1590905     0.3824598     1.1947766
C           5.9238218     1.1087218     0.2795664
H           1.4274053     1.6203701     1.0079279
H           6.9120582     1.5503882     0.1997700
C           4.7810257     1.8777346     0.0949839
H           0.6184547     0.9967483    -0.4251122
H           4.8553395     2.9405825    -0.1311134
N           3.5374087     1.3904388     0.1704827
C           3.3704282     0.0912462     0.4516783
C           4.4616641    -0.7733934     0.6758943
H           4.2914254    -1.8110921     0.9149426
C           5.7421630    -0.2439708     0.5771110
H           6.5988268    -0.8916212     0.7451833
N           0.2809631    -1.8642375     0.1733216
H          -0.2342336    -1.1305500    -0.2909233
C          -0.1844036    -3.2236508    -0.0644022
H           0.1759786    -3.6344409    -1.0168594
H          -1.2777380    -3.2221102    -0.0624276
H           0.1746056    -3.8707102     0.7373611
O           2.3926667    -2.6198573     0.5292389
23
414_C8H11N3O_16-0-1-11 (-150,) energy =    -550.9698008
C           1.6032668    -1.6966561     0.5705954
N           1.9799129    -0.3448514     0.6886695
C           0.9502336     0.6991100     0.6773663
H           0.0600133     0.3161990     1.1789954
C           5.8601980     1.0922331     0.2019228
H           1.3264590     1.5691897     1.2125484
H           6.8407742     1.5346996     0.0580673
C           4.7076506     1.8595205     0.0861402
H           0.6925651     1.0314328    -0.3383570
H           4.7667883     2.9213843    -0.1490185
N           3.4706649     1.3725032     0.2421367
C           3.3256986     0.0744958     0.5399046
C           4.4296889    -0.7883439     0.7033253
H           4.2744792    -1.8219692     0.9715961
C           5.7001739    -0.2596616     0.5186476
H           6.5670797    -0.9048304     0.6363977
N           0.3235525    -1.8953012     0.0987987
H          -0.0946680    -1.1714241    -0.4674626
C          -0.1375208    -3.2565807    -0.1297542
H           0.3442931    -3.7244571    -0.9985275
H          -1.2199245    -3.2400325    -0.2833447
H           0.0914329    -3.8626099     0.7482037
O           2.3259527    -2.6397512     0.8724720
23
414_C8H11N3O_16-0-1-11 (-135,) energy =    -550.9679171
C           1.5808647    -1.7129782     0.6843812
N           1.9543058    -0.3542270     0.8171265
C           0.9198417     0.6823224     0.7520126
H           0.0048167     0.2855869     1.1949297
C           5.8095395     1.0383997     0.0937489
H           1.2544527     1.5497277     1.3201733
H           6.7855318     1.4669593    -0.1105040
C           4.6602112     1.8150116     0.0196280
H           0.7197620     1.0274589    -0.2726464
H           4.7179586     2.8704147    -0.2432981
N           3.4270511     1.3459787     0.2510657
C           3.2885740     0.0570454     0.5864336
C           4.3910282    -0.8140679     0.7151101
H           4.2399985    -1.8382409     1.0233161
C           5.6545279    -0.3048237     0.4513335
H           6.5209668    -0.9552264     0.5401250
N           0.4107602    -1.9161267    -0.0042037
H           0.0717217    -1.1835502    -0.6102480
C          -0.0667693    -3.2685219    -0.2420989
H           0.4801992    -3.7681385    -1.0526422
H          -1.1300305    -3.2334212    -0.4952265
H           0.0683515    -3.8558075     0.6674908
O           2.2374573    -2.6430097     1.1361014
23
414_C8H11N3O_16-0-1-11 (-120,) energy =    -550.9651007
C           1.5735407    -1.8677411     0.8840058
N           1.9388307    -0.4952333     0.9996252
C           0.8859807     0.5195982     0.9076644
H          -0.0253016     0.1120474     1.3494667
C           5.7347988     0.8476625    -0.0349380
H           1.1974754     1.4027665     1.4660720
H           6.6974662     1.2607396    -0.3185920
C           4.5889232     1.6322120    -0.0549814
H           0.6856550     0.8475306    -0.1230743
H           4.6368354     2.6783835    -0.3543088
N           3.3696852     1.1833910     0.2744493
C           3.2480654    -0.0930448     0.6592404
C           4.3505837    -0.9707678     0.7398851
H           4.2150282    -1.9833781     1.0943042
C           5.5964124    -0.4833328     0.3751275
H           6.4628269    -1.1378948     0.4252392
N           0.5382788    -2.1022103     0.0215072
H           0.2509768    -1.3679048    -0.6084668
C           0.0381706    -3.4474217    -0.2051544
H           0.6054346    -3.9727146    -0.9846828
H          -1.0144868    -3.4021836    -0.4992180
H           0.1318893    -4.0139765     0.7224882
O           2.1512370    -2.7647949     1.4815513
23
414_C8H11N3O_16-0-1-11 (-105,) energy =    -550.9620172
C           1.6111123    -1.6441855     1.0331673
N           2.0009306    -0.2646296     1.1081562
C           0.9559522     0.7486940     0.9474792
H           0.0318562     0.3632609     1.3839937
C           5.8043220     0.9011635    -0.0822924
H           1.2552710     1.6535461     1.4781169
H           6.7734213     1.2665553    -0.4063322
C           4.6876097     1.7262557    -0.1073341
H           0.7801888     1.0358584    -0.1002121
H           4.7669405     2.7566899    -0.4512892
N           3.4604608     1.3382842     0.2694598
C           3.3043167     0.0840370     0.7105099
C           4.3764094    -0.8311637     0.7988696
H           4.2150986    -1.8237398     1.1995627
C           5.6293779    -0.4070989     0.3856553
H           6.4727969    -1.0906161     0.4411426
N           0.7780636    -1.9220317    -0.0126142
H           0.5614421    -1.1845358    -0.6670705
C           0.2041550    -3.2388078    -0.2282523
H           0.5719763    -3.6815051    -1.1615623
H          -0.8904652    -3.1913610    -0.2660545
H           0.5104273    -3.8713590     0.6054512
O           2.0315302    -2.4898950     1.8062913
23
414_C8H11N3O_16-0-1-11 (-90,) energy =    -550.9626877
C           1.3323163    -1.5259308     0.7048894
N           1.7631809    -0.2003655     0.3175796
C           0.9394076     0.8614352     0.9165852
H          -0.1093185     0.5660938     0.8355579
C           5.8111049     0.6718094    -0.0689422
H           1.1847456     1.0274164     1.9718292
H           6.8507167     0.9653597    -0.1705362
C           4.8201661     1.6192455     0.1596041
H           1.1046264     1.7863886     0.3660432
H           5.0728693     2.6757696     0.2399483
N           3.5209793     1.3279720     0.3016563
C           3.1432207     0.0462290     0.2111273
C           4.0715516    -0.9949809    -0.0148116
H           3.7484446    -2.0279325    -0.0718140
C           5.4114509    -0.6663036    -0.1515037
H           6.1432196    -1.4525199    -0.3189045
N           1.1492273    -2.3349596    -0.3750570
H           1.2710609    -1.9161277    -1.2858289
C           0.7004610    -3.7111528    -0.2635704
H           1.3878284    -4.3915795    -0.7788239
H          -0.3040112    -3.8371954    -0.6853470
H           0.6705586    -3.9624730     0.7974054
O           1.1004194    -1.8438532     1.8582174
23
414_C8H11N3O_16-0-1-11 (-75,) energy =    -550.9642822
C           1.2323172    -1.4855661     0.7000722
N           1.7281396    -0.1723728     0.3999740
C           0.9503138     0.9087848     1.0257840
H          -0.0983611     0.6090972     1.0423268
C           5.7678831     0.6623099    -0.1523004
H           1.2791198     1.1090789     2.0517985
H           6.8040682     0.9495099    -0.2974819
C           4.7802539     1.6203060     0.0465409
H           1.0706230     1.8160888     0.4353160
H           5.0325388     2.6798773     0.0614061
N           3.4858714     1.3367887     0.2333604
C           3.1057513     0.0514170     0.2275404
C           4.0331973    -0.9999832     0.0487028
H           3.7159736    -2.0351517     0.0747172
C           5.3688073    -0.6777144    -0.1420233
H           6.0983315    -1.4727693    -0.2738539
N           1.2434417    -2.3129683    -0.3854520
H           1.5046353    -1.9097525    -1.2736102
C           0.7847876    -3.6888172    -0.3282619
H           1.5466091    -4.3749365    -0.7160762
H          -0.1387524    -3.8249418    -0.9041601
H           0.5829226    -3.9255907     0.7170568
O           0.7714446    -1.7873132     1.7887299
23
414_C8H11N3O_16-0-1-11 (-60,) energy =    -550.9660717
C           1.1871234    -1.5369097     0.5881792
N           1.7466508    -0.2377847     0.4155864
C           0.9828135     0.8603624     1.0277301
H          -0.0299069     0.5045485     1.2109873
C           5.7661100     0.6158926    -0.2396347
H           1.4272318     1.1779476     1.9771095
H           6.7958725     0.9110901    -0.4119322
C           4.7642659     1.5681876    -0.0868982
H           0.9708069     1.7149937     0.3501332
H           4.9999540     2.6306166    -0.1341343
N           3.4762024     1.2751991     0.1237985
C           3.1164734    -0.0150569     0.1965739
C           4.0614780    -1.0593380     0.0797928
H           3.7638211    -2.0950427     0.1832637
C           5.3902200    -0.7268560    -0.1433204
H           6.1325352    -1.5164514    -0.2282071
N           1.3816646    -2.3640840    -0.4837122
H           1.7831994    -1.9670069    -1.3207173
C           0.8776996    -3.7245372    -0.5150134
H           1.6567621    -4.4215339    -0.8440747
H           0.0137481    -3.8188763    -1.1850661
H           0.5615507    -3.9843689     0.4958074
O           0.5195843    -1.8417067     1.5651554
23
414_C8H11N3O_16-0-1-11 (-45,) energy =    -550.9677770
C           1.0331112    -1.3673907     0.5891926
N           1.6589324    -0.0966372     0.5314872
C           0.8949290     1.0241123     1.0984914
H          -0.0962920     0.6540814     1.3528744
C           5.6807118     0.7413453    -0.1337586
H           1.3788948     1.4111561     2.0007659
H           6.7108292     1.0335819    -0.3092799
C           4.6715084     1.6942426    -0.0435766
H           0.8299765     1.8354356     0.3707955
H           4.9012167     2.7543447    -0.1430585
N           3.3827775     1.4035604     0.1644662
C           3.0292994     0.1161811     0.3004921
C           3.9821173    -0.9258738     0.2553306
H           3.6883918    -1.9556426     0.4120908
C           5.3117115    -0.5963742     0.0302337
H           6.0599893    -1.3842534    -0.0007392
N           1.4014714    -2.2379187    -0.4043454
H           1.8781679    -1.8592404    -1.2105033
C           0.7360144    -3.5231903    -0.5367330
H           1.3613154    -4.1912747    -1.1355208
H          -0.2512724    -3.4356485    -1.0099314
H           0.5963544    -3.9529228     0.4563924
O           0.1757913    -1.6400175     1.4178702
23
414_C8H11N3O_16-0-1-11 (-30,) energy =    -550.9690788
C           0.9827218    -1.3516207     0.5948334
N           1.6557377    -0.1108068     0.6549097
C           0.8934678     1.0214293     1.1986260
H          -0.0486112     0.6283661     1.5751697
C           5.6384074     0.7411632    -0.1948345
H           1.4486621     1.4953413     2.0124399
H           6.6580556     1.0360935    -0.4201039
C           4.6176030     1.6847677    -0.1335651
H           0.7162515     1.7721568     0.4238452
H           4.8287767     2.7395166    -0.3047302
N           3.3399617     1.3900032     0.1289156
C           3.0115541     0.1084642     0.3557599
C           3.9797245    -0.9197270     0.3549389
H           3.7062347    -1.9387650     0.5967033
C           5.2971705    -0.5879279     0.0673452
H           6.0574094    -1.3648399     0.0680606
N           1.4570514    -2.2439935    -0.3364130
H           2.0336287    -1.8821921    -1.0833054
C           0.7261860    -3.4768970    -0.5840047
H           1.3725948    -4.1694099    -1.1302970
H          -0.1933332    -3.3112749    -1.1613990
H           0.4475123    -3.9222326     0.3721265
O           0.0081054    -1.5979979     1.2936480
23
414_C8H11N3O_16-0-1-11 (-15,) energy =    -550.9697239
C           0.9527204    -1.3222382     0.6158224
N           1.6794555    -0.1260772     0.7888022
C           0.9288165     1.0203353     1.3169654
H           0.0252752     0.6300014     1.7807599
C           5.6195221     0.7040780    -0.2558580
H           1.5353450     1.5467670     2.0572714
H           6.6284675     0.9911476    -0.5336064
C           4.5930977     1.6435657    -0.2234114
H           0.6726141     1.7248504     0.5198301
H           4.7897055     2.6859531    -0.4703574
N           3.3268394     1.3575802     0.0984442
C           3.0196978     0.0917195     0.4197759
C           3.9967840    -0.9262781     0.4610659
H           3.7379050    -1.9261998     0.7863243
C           5.3013352    -0.6070026     0.1064157
H           6.0695855    -1.3753250     0.1361328
N           1.4958768    -2.2531976    -0.2398396
H           2.1694091    -1.9302781    -0.9205681
C           0.7105022    -3.4279266    -0.5884066
H           1.3609482    -4.1481715    -1.0922477
H          -0.1385758    -3.1891910    -1.2428156
H           0.3157215    -3.8769199     0.3241713
O          -0.1144012    -1.5153614     1.1856350
23
414_C8H11N3O_16-0-1-11 (0,) energy =    -550.9695081
C           0.9294152    -1.3100633     0.5691451
N           1.6895782    -0.1604873     0.8661663
C           0.9306048     0.9875188     1.3806114
H           0.0675359     0.5959005     1.9149525
C           5.5857250     0.7062737    -0.3094068
H           1.5676657     1.5634101     2.0540258
H           6.5822868     0.9992840    -0.6234563
C           4.5414422     1.6271583    -0.2989971
H           0.5981241     1.6461068     0.5716461
H           4.7126355     2.6598254    -0.5995773
N           3.2880147     1.3326742     0.0635112
C           3.0156147     0.0785101     0.4517743
C           4.0139021    -0.9156489     0.5247948
H           3.7799332    -1.8996260     0.9132124
C           5.3043754    -0.5913154     0.1239329
H           6.0895044    -1.3411552     0.1752083
N           1.5369659    -2.2846583    -0.1930549
H           2.2989939    -2.0007443    -0.7933701
C           0.7254128    -3.4020824    -0.6563561
H           1.3876484    -4.1603165    -1.0831872
H          -0.0161108    -3.1044790    -1.4098462
H           0.1895218    -3.8296069     0.1921938
O          -0.2120606    -1.4446609     0.9934987
23
414_C8H11N3O_16-0-1-11 (15,) energy =    -550.9697222
C           0.8143332    -1.4998878    -0.1057942
N           1.4966777    -0.2696844    -0.2012735
C           0.7372235     0.8541619    -0.7647205
H           0.3953846     1.5325640     0.0228013
C           5.3097994     0.7099772     1.1424076
H           1.3719238     1.4187587    -1.4513363
H           6.2819941     1.0352650     1.4981386
C           4.2475341     1.6045543     1.0497657
H          -0.1135798     0.4352378    -1.2980068
H           4.3783978     2.6496722     1.3269367
N           3.0221321     1.2699922     0.6312663
C           2.7959195    -0.0015679     0.2680807
C           3.8179197    -0.9751793     0.2821976
H           3.6282369    -1.9787791    -0.0775235
C           5.0777194    -0.6064004     0.7365748
H           5.8796160    -1.3399965     0.7509582
N           1.3365248    -2.4266934     0.7683245
H           1.9374401    -2.0879494     1.5071419
C           0.5765970    -3.6384279     1.0389220
H           0.2592538    -4.0782978     0.0924430
H          -0.3215021    -3.4482232     1.6418522
H           1.2209293    -4.3463794     1.5674849
O          -0.1990302    -1.7260308    -0.7558545
23
414_C8H11N3O_16-0-1-11 (30,) energy =    -550.9690788
C           0.8497373    -1.5237880    -0.1081898
N           1.4751791    -0.2570211    -0.0908508
C           0.7127241     0.8571862    -0.6703857
H           0.4459831     1.5827775     0.1026917
C           5.3425854     0.7276688     1.0852954
H           1.3100257     1.3703996    -1.4286511
H           6.3290470     1.0563102     1.3956204
C           4.2926657     1.6325429     0.9625879
H          -0.1807841     0.4369148    -1.1273414
H           4.4475758     2.6904640     1.1704158
N           3.0520823     1.2949956     0.5949410
C           2.7938246     0.0072636     0.3179816
C           3.7993887    -0.9827665     0.3746333
H           3.5865075    -2.0058012     0.0922103
C           5.0761925    -0.6072508     0.7711610
H           5.8646726    -1.3542063     0.8148873
N           1.2857020    -2.4182658     0.8396442
H           1.7875339    -2.0516200     1.6364669
C           0.5876430    -3.6835554     1.0048683
H           0.4026579    -4.1178022     0.0213096
H          -0.3801105    -3.5663115     1.5108638
H           1.2165622    -4.3627649     1.5870918
O          -0.0570714    -1.7914441    -0.8859945
23
414_C8H11N3O_16-0-1-11 (45,) energy =    -550.9677770
C           0.9432187    -1.6629335     0.0269182
N           1.5014921    -0.3650054     0.1430498
C           0.7224166     0.7276452    -0.4573018
H           0.5706101     1.5222714     0.2758713
C           5.4260804     0.6516923     1.0826466
H           1.2448145     1.1528602    -1.3200951
H           6.4271555     0.9896951     1.3295247
C           4.3798102     1.5569585     0.9398673
H          -0.2308675     0.3151846    -0.7817718
H           4.5509595     2.6248819     1.0691878
N           3.1229292     1.2089622     0.6435933
C           2.8419990    -0.0912252     0.4664926
C           3.8393646    -1.0874522     0.5593621
H           3.6068707    -2.1271757     0.3690785
C           5.1339658    -0.6990531     0.8759023
H           5.9160657    -1.4508562     0.9447925
N           1.2880502    -2.5316325     1.0304277
H           1.6931297    -2.1448860     1.8711665
C           0.6791200    -3.8494363     1.1004957
H           0.6259860    -4.2686396     0.0944998
H          -0.3400843    -3.8169474     1.5083758
H           1.2956092    -4.4970223     1.7301793
O           0.1556032    -1.9619945    -0.8597941
23
414_C8H11N3O_16-0-1-11 (60,) energy =    -550.9660716
C           1.0610787    -1.7024686    -0.0896808
N           1.5528736    -0.3870390     0.1519034
C           0.7955990     0.6945540    -0.4967713
H           0.6964352     1.5324069     0.1944951
C           5.4714994     0.6054836     1.1385025
H           1.2995987     1.0505989    -1.4017042
H           6.4720159     0.9360672     1.3971921
C           4.4471858     1.5217610     0.9261150
H          -0.1846204     0.3042701    -0.7662868
H           4.6356362     2.5911164     1.0127218
N           3.1922669     1.1843202     0.6088494
C           2.8913969    -0.1168240     0.4825186
C           3.8655898    -1.1263583     0.6527649
H           3.6186972    -2.1701071     0.5057169
C           5.1584773    -0.7481876     0.9863985
H           5.9230163    -1.5103687     1.1139099
N           1.2044745    -2.5456363     0.9778012
H           1.5235313    -2.1525346     1.8513858
C           0.7548868    -3.9249180     0.9426030
H           0.5280623    -4.1733326    -0.0947308
H          -0.1534707    -4.0679838     1.5415099
H           1.5338045    -4.5987505     1.3171412
O           0.4844993    -2.0104569    -1.1220050
23
414_C8H11N3O_16-0-1-11 (75,) energy =    -550.9642822
C           1.1126777    -1.6467633    -0.1967093
N           1.5305246    -0.3226228     0.1671881
C           0.7612188     0.7417553    -0.4967584
H           0.7987356     1.6394370     0.1189398
C           5.4781483     0.6538095     1.0526664
H           1.1607318     0.9776239    -1.4895806
H           6.4874830     0.9772550     1.2847588
C           4.4714176     1.5774558     0.7956204
H          -0.2701419     0.4025169    -0.6017114
H           4.6814443     2.6459912     0.8217212
N           3.2079669     1.2487675     0.5017555
C           2.8804028    -0.0500623     0.4520802
C           3.8324999    -1.0688735     0.6825508
H           3.5601076    -2.1146130     0.6110047
C           5.1351602    -0.6999694     0.9843513
H           5.8834833    -1.4692169     1.1574606
N           1.0722101    -2.4974874     0.8699222
H           1.2476065    -2.1048812     1.7835546
C           0.6756325    -3.8884891     0.7498176
H           0.5637898    -4.1085688    -0.3125191
H          -0.2827821    -4.0738119     1.2500071
H           1.4329319    -4.5532797     1.1812245
O           0.7505417    -1.9412308    -1.3239987
23
414_C8H11N3O_16-0-1-11 (90,) energy =    -550.9626877
C           1.2144396    -1.6832220    -0.1943780
N           1.5602444    -0.3512165     0.2516553
C           0.7437241     0.6914635    -0.3893930
H           0.8282233     1.6093052     0.1905723
C           5.5274272     0.6670359     0.9730510
H           1.0637530     0.8907670    -1.4185382
H           6.5433314     0.9979705     1.1620143
C           4.5200839     1.5806013     0.6858439
H          -0.2954158     0.3542020    -0.3971214
H           4.7356522     2.6476248     0.6464933
N           3.2486698     1.2428648     0.4361511
C           2.9167666    -0.0541948     0.4713577
C           3.8657112    -1.0637907     0.7491783
H           3.5808764    -2.1094413     0.7601645
C           5.1765957    -0.6869974     0.9974773
H           5.9240599    -1.4480853     1.2064902
N           0.9803224    -2.5230388     0.8516789
H           1.0140249    -2.1206774     1.7772805
C           0.5973570    -3.9126294     0.6781845
H           0.6591932    -4.1403643    -0.3867278
H          -0.4306307    -4.0870802     1.0180997
H           1.2699949    -4.5777109     1.2315209
O           1.0860960    -1.9835130    -1.3684187
23
414_C8H11N3O_16-0-1-11 (105,) energy =    -550.9620172
C           1.5241171    -1.7862039    -0.4989247
N           1.8626485    -0.3912783    -0.5172350
C           0.7683290     0.5770697    -0.4203350
H           0.5001126     0.8343266     0.6154701
C           5.5117301     0.8947645     0.9902066
H           1.0713178     1.5041771    -0.9087966
H           6.4371515     1.2902590     1.3962198
C           4.3640964     1.6752381     0.9427399
H          -0.1026912     0.1657301    -0.9352916
H           4.3747977     2.7002409     1.3110436
N           3.1866452     1.2483218     0.4634252
C           3.1160055    -0.0011332    -0.0118752
C           4.2277501    -0.8719773    -0.0327109
H           4.1382569    -1.8610959    -0.4633122
C           5.4266310    -0.4087954     0.4856088
H           6.2986793    -1.0577629     0.4838753
N           0.6240745    -2.1188195     0.4727326
H           0.3276116    -1.4046935     1.1217872
C           0.0886782    -3.4612193     0.6179348
H           0.4842449    -4.0631501    -0.2007176
H          -1.0065800    -3.4570552     0.5703251
H           0.4002085    -3.9095204     1.5688896
O           2.0371952    -2.5979543    -1.2522564
23
414_C8H11N3O_16-0-1-11 (120,) energy =    -550.9651007
C           1.4841009    -2.0142304    -0.3573730
N           1.8016516    -0.6264132    -0.4182480
C           0.7047843     0.3446387    -0.3904393
H           0.4117727     0.6420474     0.6272958
C           5.4483347     0.8396456     0.9365353
H           1.0229445     1.2511566    -0.9060304
H           6.3685606     1.2834261     1.3026831
C           4.2736819     1.5786058     0.8810478
H          -0.1521678    -0.0881834    -0.9100745
H           4.2559372     2.6190828     1.2027004
N           3.1028749     1.0901812     0.4484284
C           3.0631354    -0.1813268     0.0314960
C           4.2030723    -1.0137283     0.0214312
H           4.1364483    -2.0228720    -0.3613985
C           5.3960612    -0.4864675     0.4920741
H           6.2894297    -1.1057367     0.4980413
N           0.3951396    -2.3073452     0.4165088
H           0.0302908    -1.5986051     1.0355300
C          -0.0664710    -3.6755283     0.5779613
H           0.1219488    -4.2176926    -0.3498556
H          -1.1397937    -3.6774977     0.7891061
H           0.4590874    -4.1953163     1.3897466
O           2.1422525    -2.8750121    -0.9242870
23
414_C8H11N3O_16-0-1-11 (135,) energy =    -550.9679170
C           1.4694479    -1.8636339    -0.1550648
N           1.7971247    -0.4887932    -0.2324126
C           0.7198477     0.5052703    -0.2294208
H           0.4263968     0.8194611     0.7826582
C           5.5251359     1.0358595     0.8176294
H           1.0627230     1.3974555    -0.7524761
H           6.4642417     1.4972722     1.1059408
C           4.3432314     1.7656637     0.8153669
H          -0.1410140     0.0834763    -0.7508164
H           4.3378647     2.8165997     1.1014480
N           3.1517176     1.2543954     0.4789725
C           3.0917493    -0.0314119     0.1100078
C           4.2350247    -0.8563333     0.0524369
H           4.1501340    -1.8787210    -0.2855831
C           5.4525498    -0.3043327     0.4242011
H           6.3487445    -0.9186701     0.3919075
N           0.2585421    -2.1269868     0.4355631
H          -0.1555356    -1.4216535     1.0271373
C          -0.1809674    -3.5017770     0.6099454
H           0.0481774    -4.0634371    -0.2969944
H          -1.2612515    -3.5135498     0.7792883
H           0.3210227    -3.9972594     1.4515377
O           2.1960254    -2.7573447    -0.5714990
23
414_C8H11N3O_16-0-1-11 (150,) energy =    -550.9698008
C           1.4825213    -1.8490923    -0.0393921
N           1.8123009    -0.4814442    -0.1022064
C           0.7435394     0.5212872    -0.1524206
H           0.3943873     0.8211804     0.8459165
C           5.5818170     1.0939723     0.7148768
H           1.1248275     1.4167427    -0.6400485
H           6.5295911     1.5708407     0.9436180
C           4.3937536     1.8133317     0.7539974
H          -0.0887486     0.1151171    -0.7295432
H           4.3915643     2.8713156     1.0128731
N           3.1933033     1.2822822     0.4921612
C           3.1243998    -0.0135726     0.1597191
C           4.2716483    -0.8292372     0.0675185
H           4.1795907    -1.8620145    -0.2313849
C           5.5015551    -0.2558864     0.3613560
H           6.4002971    -0.8642796     0.3000970
N           0.1790354    -2.1074484     0.3265439
H          -0.3108249    -1.4127514     0.8715126
C          -0.2431438    -3.4902164     0.4927658
H           0.0780377    -4.0677734    -0.3754314
H          -1.3340250    -3.5190235     0.5606856
H           0.1877861    -3.9577133     1.3880700
O           2.2640324    -2.7566338    -0.3009968
23
414_C8H11N3O_16-0-1-11 (165,) energy =    -550.9704604
C           1.4939265    -1.8211068     0.1274659
N           1.8330394    -0.4605677     0.0656189
C           0.7741350     0.5483107    -0.0440361
H           0.3175826     0.7844762     0.9276242
C           5.6515664     1.1141403     0.6440091
H           1.2080335     1.4686747    -0.4274124
H           6.6121333     1.5914958     0.8097957
C           4.4680792     1.8347103     0.7518803
H           0.0081142     0.1872685    -0.7337283
H           4.4821219     2.8945261     1.0026502
N           3.2545822     1.3019613     0.5694442
C           3.1620204     0.0036543     0.2521221
C           4.3010293    -0.8135714     0.0990732
H           4.1913782    -1.8516859    -0.1715565
C           5.5478231    -0.2378409     0.3083608
H           6.4401006    -0.8485320     0.1966572
N           0.1406069    -2.0744717     0.2491488
H          -0.4374595    -1.3722641     0.6874660
C          -0.2863046    -3.4558653     0.4245326
H           0.1578949    -4.0706653    -0.3597598
H          -1.3755442    -3.4965391     0.3391357
H           0.0174054    -3.8734250     1.3936470
O           2.3023487    -2.7403736     0.0465267
23
414_C8H11N3O_16-0-1-11 (180,) energy =    -550.9700705
C           1.6273453    -1.6728937     0.2593695
N           2.0051809    -0.3264910     0.3692833
C           0.9681123     0.7070993     0.4533970
H           0.2577624     0.4603908     1.2488797
C           5.9278576     1.1081310     0.4100283
H           1.4502988     1.6558377     0.6719344
H           6.9190517     1.5502278     0.4083340
C           4.7976460     1.8869661     0.1928712
H           0.4303026     0.8211255    -0.4978632
H           4.8841995     2.9586125     0.0188356
N           3.5526429     1.3993082     0.1751417
C           3.3652437     0.0899822     0.3857615
C           4.4435168    -0.7859589     0.6292457
H           4.2639443    -1.8354594     0.7981851
C           5.7275918    -0.2557737     0.6337503
H           6.5720880    -0.9140754     0.8208947
N           0.2640977    -1.8976963     0.2593414
H          -0.3531768    -1.1522204    -0.0234536
C          -0.2092773    -3.2525657     0.0125218
H          -0.0205178    -3.5867314    -1.0163862
H          -1.2840228    -3.2854503     0.2104878
H           0.3013136    -3.9404729     0.6880897
O           2.4155402    -2.6124531     0.2077594
