20
413_C7H9N3O_0-1-11-10 (-165,) energy =    -511.6612697
C           1.9605224    -1.8184921     0.1319480
N           2.3829500    -0.5611874    -0.3075663
C           1.4577215     0.2836388    -1.0732865
H           0.8836328    -0.3454277    -1.7559762
H           2.0361881     1.0100753    -1.6384266
H           0.7742046     0.8447682    -0.4211402
C           6.0218809     1.2607120     0.6125181
H           6.9378720     1.8015701     0.8279225
C           4.9164457     1.9122650     0.0785973
H           4.9487292     2.9793956    -0.1366395
N           3.7589808     1.3030127    -0.2009156
C           3.6485162    -0.0109189     0.0336055
C           4.7142069    -0.7705195     0.5584653
H           4.5978595    -1.8299342     0.7221903
C           5.9013732    -0.1102681     0.8500620
H           6.7366182    -0.6753757     1.2556349
N           0.6156521    -2.0917455    -0.0984644
H           0.3355676    -2.9444358     0.3689155
H          -0.0603339    -1.3426673    -0.0302517
O           2.6863988    -2.6640803     0.6401873
20
413_C7H9N3O_0-1-11-10 (-150,) energy =    -511.6611111
C           1.9262803    -1.7851071     0.2306279
N           2.3910828    -0.6017905    -0.3490786
C           1.4938285     0.2155980    -1.1717122
H           0.9195241    -0.4405965    -1.8294027
H           2.0936544     0.8968845    -1.7714959
H           0.8108042     0.8283202    -0.5675436
C           5.9797332     1.2550711     0.6630864
H           6.8839712     1.8028547     0.9090134
C           4.8392393     1.9195269     0.2260520
H           4.8343325     3.0033895     0.1204998
N           3.6920754     1.3024800    -0.0815641
C           3.6385661    -0.0308531     0.0203547
C           4.7398858    -0.8036087     0.4350350
H           4.6573633    -1.8775142     0.4997900
C           5.9138823    -0.1366536     0.7631664
H           6.7800108    -0.7082995     1.0861035
N           0.5859691    -2.0650287    -0.0135969
H           0.2734034    -2.8513981     0.5412039
H          -0.0783997    -1.3041513    -0.0612308
O           2.6247589    -2.5674844     0.8627250
20
413_C7H9N3O_0-1-11-10 (-135,) energy =    -511.6599196
C           1.9047766    -1.7343772     0.3147899
N           2.4088395    -0.6458980    -0.4042274
C           1.5274878     0.1468318    -1.2645717
H           0.9473140    -0.5288737    -1.8981171
H           2.1407449     0.7881160    -1.8959101
H           0.8505185     0.7991603    -0.6961820
C           5.9435423     1.2444550     0.7057315
H           6.8346931     1.7979061     0.9848027
C           4.7739114     1.9117776     0.3567851
H           4.7334364     2.9999329     0.3567156
N           3.6378782     1.2889238     0.0171824
C           3.6377567    -0.0474035    -0.0117616
C           4.7664867    -0.8204567     0.3081398
H           4.7145006    -1.8989503     0.2751123
C           5.9276416    -0.1524575     0.6774472
H           6.8186147    -0.7207565     0.9308739
N           0.5666231    -2.0240318     0.0752946
H           0.2261733    -2.7297855     0.7154075
H          -0.0833821    -1.2668675    -0.0876295
O           2.5840309    -2.4373196     1.0512575
20
413_C7H9N3O_0-1-11-10 (-120,) energy =    -511.6576568
C           1.8825660    -1.6771023     0.3853526
N           2.4244254    -0.6953985    -0.4530817
C           1.5621449     0.0686855    -1.3568265
H           0.9729197    -0.6260585    -1.9616703
H           2.1918408     0.6609957    -2.0208397
H           0.8947168     0.7642558    -0.8298426
C           5.9050754     1.2338516     0.7482559
H           6.7819483     1.7925261     1.0605219
C           4.7025277     1.8883079     0.4967227
H           4.6232397     2.9683406     0.6098185
N           3.5799893     1.2580309     0.1252799
C           3.6363410    -0.0650667    -0.0446763
C           4.7950985    -0.8221608     0.1760095
H           4.7755857    -1.8948537     0.0376097
C           5.9428985    -0.1531963     0.5850989
H           6.8597114    -0.7075741     0.7665557
N           0.5434696    -1.9693190     0.1599551
H           0.1768778    -2.5870053     0.8724170
H          -0.0881628    -1.2271042    -0.1087585
O           2.5447632    -2.2985597     1.2048613
20
413_C7H9N3O_0-1-11-10 (-105,) energy =    -511.6547865
C           1.8445731    -1.5918002     0.4586933
N           2.4349458    -0.7269529    -0.4707267
C           1.6160924    -0.0115486    -1.4513517
H           1.0095954    -0.7312247    -2.0083910
H           2.2793370     0.4920402    -2.1566764
H           0.9693919     0.7528078    -0.9988014
C           5.8658999     1.2525664     0.7946831
H           6.7284413     1.8187503     1.1326163
C           4.6240889     1.8700806     0.6616339
H           4.5024140     2.9263666     0.8958595
N           3.5167312     1.2278786     0.2662173
C           3.6306674    -0.0639468    -0.0484985
C           4.8270792    -0.7812408     0.0500600
H           4.8457399    -1.8345777    -0.2016477
C           5.9625930    -0.1055272     0.4850574
H           6.9099402    -0.6296321     0.5771881
N           0.5084370    -1.8906370     0.2244107
H           0.1078949    -2.4142786     0.9917965
H          -0.1003825    -1.1751458    -0.1490144
O           2.4745859    -2.1191349     1.3643922
20
413_C7H9N3O_0-1-11-10 (-90,) energy =    -511.6522893
C           1.7718903    -1.5144752     0.5355475
N           2.4273374    -0.7714656    -0.4489937
C           1.6937322    -0.1407327    -1.5459530
H           1.0572383    -0.8839552    -2.0342815
H           2.4135087     0.2200762    -2.2844718
H           1.0862445     0.7160426    -1.2204521
C           5.8448424     1.2418015     0.8087551
H           6.7019676     1.8130934     1.1520557
C           4.5667976     1.7987587     0.8418571
H           4.4143963     2.8111310     1.2122856
N           3.4655343     1.1481200     0.4456953
C           3.6178238    -0.0924707    -0.0222668
C           4.8501514    -0.7443175    -0.0992939
H           4.8977492    -1.7594529    -0.4766169
C           5.9852699    -0.0606428     0.3289971
H           6.9613476    -0.5364218     0.2900135
N           0.4410886    -1.8164307     0.2674779
H          -0.0047522    -2.2457759     1.0679578
H          -0.1324818    -1.1247194    -0.1965260
O           2.3487677    -1.9462294     1.5232772
20
413_C7H9N3O_0-1-11-10 (-75,) energy =    -511.6508708
C           1.6929280    -1.4334906     0.6316275
N           2.4178325    -0.7988774    -0.3755764
C           1.7921239    -0.3074655    -1.6005610
H           1.1511432    -1.0853710    -2.0245359
H           2.5757969    -0.0840691    -2.3292144
H           1.2052674     0.6104592    -1.4427259
C           5.8397894     1.2439761     0.8227590
H           6.6972425     1.8210157     1.1554579
C           4.5445671     1.7060684     1.0592658
H           4.3802363     2.6490110     1.5781406
N           3.4429862     1.0485758     0.6785931
C           3.6078227    -0.1149290     0.0447508
C           4.8574450    -0.6677873    -0.2421238
H           4.9186990    -1.6241608    -0.7500886
C           5.9963528     0.0298848     0.1551798
H           6.9860029    -0.3715713    -0.0451308
N           0.3697279    -1.7308906     0.3149271
H          -0.1260434    -2.0819595     1.1244981
H          -0.1600845    -1.0551164    -0.2203124
O           2.2061226    -1.7860129     1.6831042
20
413_C7H9N3O_0-1-11-10 (-60,) energy =    -511.6503913
C           1.5927182    -1.3137634     0.6939749
N           2.3862794    -0.7562539    -0.3069450
C           1.8979970    -0.5234239    -1.6624859
H           1.3010651    -1.3770914    -1.9935916
H           2.7519899    -0.4209461    -2.3365258
H           1.2949116     0.3948817    -1.7446395
C           5.8558057     1.2330543     0.8357915
H           6.7274178     1.7921947     1.1619229
C           4.5823720     1.5813586     1.2871402
H           4.4494114     2.4179769     1.9711467
N           3.4640937     0.9472239     0.9180637
C           3.5883339    -0.0959260     0.0938949
C           4.8175295    -0.5345488    -0.4102070
H           4.8586915    -1.4021646    -1.0610506
C           5.9705026     0.1515668    -0.0372202
H           6.9419842    -0.1644463    -0.4075923
N           0.2834405    -1.6006151     0.3078571
H          -0.2702045    -1.8928289     1.1034372
H          -0.1922011    -0.9337278    -0.2873779
O           2.0281635    -1.6115956     1.7944025
20
413_C7H9N3O_0-1-11-10 (-45,) energy =    -511.6498734
C           1.5316051    -1.2336570     0.7139554
N           2.3957291    -0.7775629    -0.2900705
C           1.9694432    -0.6968421    -1.6854006
H           1.3930233    -1.5864701    -1.9496164
H           2.8478722    -0.6513361    -2.3315620
H           1.3616067     0.1992879    -1.8897536
C           5.8468326     1.2446116     0.8542088
H           6.7138088     1.8052258     1.1895110
C           4.5935617     1.4665079     1.4243820
H           4.4703149     2.2056908     2.2143677
N           3.4811722     0.8260444     1.0509121
C           3.5877003    -0.1017901     0.0964225
C           4.8022656    -0.4157375    -0.5298353
H           4.8484215    -1.2022800    -1.2763846
C           5.9450221     0.2811698    -0.1499313
H           6.9010759     0.0585399    -0.6161512
N           0.2226272    -1.4535878     0.2874410
H          -0.3807409    -1.6747933     1.0695912
H          -0.1848803    -0.7925762    -0.3624732
O           1.9030708    -1.5101161     1.8406271
20
413_C7H9N3O_0-1-11-10 (-30,) energy =    -511.6491942
C           1.4854859    -1.1834193     0.6985748
N           2.3700188    -0.7087297    -0.3104176
C           2.1774369    -1.1156601    -1.7006774
H           1.1639089    -1.4943970    -1.8232400
H           2.8702008    -1.9190939    -1.9874872
H           2.3299778    -0.2679258    -2.3784711
C           5.8458651     1.2555625     0.8336240
H           6.7189098     1.7969676     1.1834750
C           4.6765151     1.2169933     1.5941359
H           4.6245348     1.7345226     2.5512409
N           3.5633192     0.5845777     1.2222309
C           3.5719647    -0.0790609     0.0582016
C           4.6967772    -0.1034341    -0.7871682
H           4.6890946    -0.6486636    -1.7232937
C           5.8406904     0.5804729    -0.3856661
H           6.7228173     0.5741019    -1.0207102
N           0.1516927    -1.1517292     0.3089085
H          -0.4732110    -1.3885778     1.0691410
H          -0.1490300    -0.3589100    -0.2446106
O           1.8455726    -1.6338841     1.7657791
20
413_C7H9N3O_0-1-11-10 (-15,) energy =    -511.6481949
C           1.4433452    -1.1610381     0.7113061
N           2.4101996    -0.8215074    -0.2792919
C           2.2098172    -1.2336679    -1.6664180
H           1.2375236    -1.7159583    -1.7535609
H           2.9734617    -1.9593868    -1.9743633
H           2.2505119    -0.3779104    -2.3528544
C           5.8357872     1.2619277     0.8122292
H           6.7012004     1.8214882     1.1521193
C           4.7126550     1.1157360     1.6261742
H           4.6870744     1.5676219     2.6170861
N           3.6139479     0.4477800     1.2735442
C           3.5844894    -0.1351495     0.0679280
C           4.6618290    -0.0432086    -0.8369582
H           4.6284695    -0.5155471    -1.8108271
C           5.7925313     0.6681314    -0.4483197
H           6.6356523     0.7495555    -1.1295448
N           0.1361444    -1.0501160     0.2518842
H          -0.5431612    -1.1971382     0.9876924
H          -0.0792667    -0.2803232    -0.3694792
O           1.7131586    -1.5789780     1.8165400
20
413_C7H9N3O_0-1-11-10 (0,) energy =    -511.6466672
C           1.3840281    -1.0914426     0.7662402
N           2.4166264    -0.8845260    -0.1954714
C           2.2118446    -1.3262160    -1.5732942
H           1.2921784    -1.9067650    -1.6228164
H           3.0381194    -1.9725591    -1.8909620
H           2.1430677    -0.4848013    -2.2775202
C           5.8344478     1.2713880     0.7977852
H           6.7045446     1.8373936     1.1142384
C           4.7792037     1.0266833     1.6755501
H           4.8107226     1.4075946     2.6957576
N           3.6833144     0.3369396     1.3574834
C           3.5783320    -0.1575802     0.1181098
C           4.5826338     0.0423459    -0.8538647
H           4.4908365    -0.3481630    -1.8592094
C           5.7158786     0.7650617    -0.4956601
H           6.5010548     0.9276964    -1.2295676
N           0.1078612    -0.9707675     0.2244700
H          -0.6132131    -1.0200780     0.9332019
H          -0.0440866    -0.2567704    -0.4773095
O           1.5708754    -1.4179714     1.9177017
20
413_C7H9N3O_0-1-11-10 (15,) energy =    -511.6453072
C           1.2934100    -0.9053042     0.7447604
N           2.3924807    -0.8233385    -0.1480085
C           2.2618541    -1.3872557    -1.4918398
H           1.4510585    -2.1140028    -1.4916430
H           3.1852965    -1.9079247    -1.7613512
H           2.0592202    -0.6260579    -2.2601612
C           5.9143410     1.2020314     0.8014222
H           6.8184050     1.7211124     1.1031664
C           4.9387604     0.8568815     1.7346356
H           5.0668178     1.1104870     2.7864106
N           3.8122999     0.2062866     1.4384779
C           3.5857927    -0.1316688     0.1659327
C           4.4977056     0.1925479    -0.8634795
H           4.2986812    -0.0444250    -1.9006962
C           5.6708678     0.8593884    -0.5276187
H           6.3834823     1.1152063    -1.3075066
N           0.0705211    -1.0837382     0.0883631
H          -0.6982366    -1.0183071     0.7442127
H          -0.0879111    -0.5709818    -0.7709684
O           1.3636817    -0.8875074     1.9550111
20
413_C7H9N3O_0-1-11-10 (30,) energy =    -511.6466460
C           1.2080436    -0.5154834     0.6452111
N           2.3303283    -0.6081847    -0.1959961
C           2.2833420    -1.4482258    -1.3952113
H           1.7417378    -2.3732312    -1.1795785
H           3.2988750    -1.7197332    -1.6852258
H           1.8065827    -0.9440063    -2.2484795
C           5.9967058     1.0722614     0.8509149
H           6.9409206     1.4978730     1.1756982
C           5.0694040     0.6011793     1.7789063
H           5.2813626     0.6545388     2.8458762
N           3.8944612     0.0544170     1.4540949
C           3.5800566    -0.0341907     0.1610157
C           4.4328507     0.4339309    -0.8573969
H           4.1322634     0.3956217    -1.8990895
C           5.6603661     0.9802015    -0.4996470
H           6.3356213     1.3468625    -1.2682717
N           0.1002081    -1.2481790     0.1995629
H          -0.7174788    -0.9956961     0.7409144
H          -0.0858288    -1.2986278    -0.7937760
O           1.1626785     0.1248822     1.6775480
20
413_C7H9N3O_0-1-11-10 (45,) energy =    -511.6481556
C           2.1286970    -1.6757269    -0.9392478
N           2.3448029    -0.5588329    -0.1233225
C           1.2267005     0.1678463     0.4765813
H           0.4796598     0.4244292    -0.2837711
H           1.5979209     1.0984339     0.9069048
H           0.7370869    -0.4032563     1.2786307
C           6.1604480     1.0649942     0.2209139
H           7.1589727     1.4896397     0.2531294
C           5.6022887     0.6517087    -0.9890621
H           6.1628142     0.7518568    -1.9172866
N           4.3752568     0.1363660    -1.1082920
C           3.6547222    -0.0176305     0.0041707
C           4.1265303     0.3481106     1.2745526
H           3.5194882     0.1757882     2.1579493
C           5.3951063     0.9111753     1.3764512
H           5.7858020     1.2050249     2.3470456
N           0.7849064    -1.9803859    -1.1573758
H           0.6842510    -2.8988493    -1.5695533
H           0.1003390    -1.7768729    -0.4421946
O           3.0215290    -2.3364338    -1.4389984
20
413_C7H9N3O_0-1-11-10 (60,) energy =    -511.6488342
C           2.1344783    -1.7605242    -0.6920476
N           2.2875295    -0.5975881     0.0676998
C           1.1793205     0.3370018     0.2712874
H           0.7783688     0.7222045    -0.6759813
H           1.5406587     1.1805798     0.8622968
H           0.3662866    -0.1314138     0.8403240
C           6.0972659     1.0756324     0.2220582
H           7.0870488     1.5216494     0.2062078
C           5.3970657     0.8658369    -0.9671251
H           5.8359900     1.1486322    -1.9225383
N           4.1735487     0.3296998    -1.0233590
C           3.6085756    -0.0414840     0.1271690
C           4.2236436     0.1173500     1.3725218
H           3.7187316    -0.2211413     2.2714627
C           5.4905956     0.6956032     1.4182392
H           5.9990216     0.8322184     2.3688595
N           0.8298777    -2.0584838    -1.0631010
H           0.7343468    -3.0093849    -1.3929181
H           0.0522958    -1.7211248    -0.5139550
O           3.0752622    -2.4692009    -1.0124787
20
413_C7H9N3O_0-1-11-10 (75,) energy =    -511.6499061
C           2.1234116    -1.7735582    -0.5407201
N           2.2409069    -0.5464564     0.1184216
C           1.1614082     0.4443191     0.0620198
H           0.8914259     0.7153716    -0.9663324
H           1.4920068     1.3440141     0.5847415
H           0.2690738     0.0789450     0.5846963
C           6.0821858     1.0620697     0.1971527
H           7.0769206     1.4958488     0.1615945
C           5.2754030     1.0524186    -0.9416816
H           5.6340331     1.4810017    -1.8760609
N           4.0437777     0.5315322    -0.9718885
C           3.5728928    -0.0036624     0.1561493
C           4.2933615    -0.0433334     1.3510728
H           3.8527835    -0.5011420     2.2301002
C           5.5757158     0.5023621     1.3691119
H           6.1689576     0.4848873     2.2793476
N           0.8340737    -2.1258559    -0.9154036
H           0.7646082    -3.1025540    -1.1682737
H           0.0439468    -1.7681571    -0.3970274
O           3.0852745    -2.4888309    -0.7768495
20
413_C7H9N3O_0-1-11-10 (90,) energy =    -511.6516631
C           2.1195222    -1.7818385    -0.3942592
N           2.2141176    -0.4896273     0.1373633
C           1.1499560     0.4896997    -0.1144951
H           0.9336043     0.6144629    -1.1817782
H           1.4651362     1.4523386     0.2910240
H           0.2310190     0.2019078     0.4104821
C           6.0747964     1.0675006     0.2188996
H           7.0732699     1.4926961     0.1856433
C           5.1994332     1.2372343    -0.8532540
H           5.5064631     1.7980498    -1.7344821
N           3.9609697     0.7297334    -0.8851260
C           3.5470622     0.0462387     0.1827729
C           4.3392272    -0.1790263     1.3104857
H           3.9419681    -0.7521510     2.1407046
C           5.6311045     0.3402965     1.3237137
H           6.2791203     0.1811962     2.1813016
N           0.8457656    -2.1717489    -0.7789872
H           0.7815016    -3.1677765    -0.9406945
H           0.0362766    -1.7602400    -0.3362599
O           3.0877029    -2.5167623    -0.5210650
20
413_C7H9N3O_0-1-11-10 (105,) energy =    -511.6542389
C           2.1235479    -1.7896269    -0.2899698
N           2.2238356    -0.4469493     0.0999306
C           1.1680128     0.5013140    -0.2756254
H           0.9262000     0.4596028    -1.3433713
H           1.5086973     1.5091553    -0.0400057
H           0.2590730     0.3108075     0.3091139
C           6.0853546     1.0952026     0.2492351
H           7.0826075     1.5241541     0.2372870
C           5.1692869     1.4089053    -0.7521180
H           5.4407856     2.0872751    -1.5592238
N           3.9301882     0.9022027    -0.8074930
C           3.5524319     0.0823795     0.1739871
C           4.3905424    -0.2966692     1.2277223
H           4.0276906    -0.9792661     1.9870645
C           5.6820461     0.2179842     1.2581729
H           6.3624655    -0.0567937     2.0595494
N           0.8558055    -2.1936757    -0.6784170
H           0.7748160    -3.1995923    -0.7402548
H           0.0401299    -1.7215221    -0.3146413
O           3.0768466    -2.5545184    -0.3020321
20
413_C7H9N3O_0-1-11-10 (120,) energy =    -511.6569959
C           2.1067516    -1.8065812    -0.2007728
N           2.2404619    -0.4324035     0.0405678
C           1.1954150     0.4932799    -0.4101118
H           0.9331563     0.3413000    -1.4628572
H           1.5628253     1.5112440    -0.2946614
H           0.2947703     0.3804386     0.2071842
C           6.0880684     1.1284137     0.2988237
H           7.0788703     1.5714842     0.3193132
C           5.1455745     1.5452795    -0.6362473
H           5.3869751     2.3211738    -1.3608935
N           3.9125234     1.0282377    -0.7266009
C           3.5644432     0.0876755     0.1528757
C           4.4330151    -0.4005225     1.1390342
H           4.1025385    -1.1751682     1.8189470
C           5.7156732     0.1295044     1.2023340
H           6.4152165    -0.2271377     1.9534788
N           0.8374459    -2.2107449    -0.5811304
H           0.7250295    -3.2146510    -0.5445826
H           0.0260446    -1.6767269    -0.3049389
O           3.0316834    -2.6009848    -0.1077225
20
413_C7H9N3O_0-1-11-10 (135,) energy =    -511.6591169
C           2.0834680    -1.8345277    -0.1458380
N           2.2705436    -0.4503980    -0.0536403
C           1.2309116     0.4612752    -0.5416399
H           0.8984367     0.1898974    -1.5491268
H           1.6468943     1.4654304    -0.5783791
H           0.3670603     0.4597770     0.1365913
C           6.0903084     1.1547403     0.3644085
H           7.0700238     1.6173233     0.4303250
C           5.1308408     1.6450523    -0.5146069
H           5.3451917     2.5022381    -1.1508516
N           3.9105620     1.1104291    -0.6535527
C           3.5878312     0.0647074     0.1108835
C           4.4765368    -0.5007600     1.0408006
H           4.1772094    -1.3523247     1.6353583
C           5.7435520     0.0560748     1.1556410
H           6.4530159    -0.3599932     1.8659084
N           0.7951268    -2.2238212    -0.4774558
H           0.6488409    -3.2152684    -0.3452734
H           0.0068126    -1.6382339    -0.2416708
O           2.9737652    -2.6574694     0.0188650
20
413_C7H9N3O_0-1-11-10 (150,) energy =    -511.6603165
C           2.0460910    -1.8367686    -0.0798454
N           2.2939029    -0.4619861    -0.1395419
C           1.2600753     0.4379828    -0.6614707
H           0.8497011     0.0555460    -1.6009202
H           1.7193879     1.4053902    -0.8490243
H           0.4455270     0.5632370     0.0654127
C           6.0738441     1.2088888     0.4214828
H           7.0378878     1.6961641     0.5268476
C           5.0892362     1.7488910    -0.3973925
H           5.2649605     2.6723332    -0.9470133
N           3.8860017     1.1906827    -0.5761733
C           3.6016981     0.0578297     0.0728026
C           4.5216061    -0.5636654     0.9389164
H           4.2636570    -1.4812598     1.4455292
C           5.7678454     0.0268896     1.1011252
H           6.4953864    -0.4332929     1.7645336
N           0.7345098    -2.1991640    -0.3503101
H           0.5556953    -3.1678876    -0.1229436
H          -0.0235467    -1.5646278    -0.1430418
O           2.8991829    -2.6848955     0.1474216
20
413_C7H9N3O_0-1-11-10 (165,) energy =    -511.6607418
C           2.0074781    -1.8519240    -0.0398798
N           2.3207977    -0.5025502    -0.2280143
C           1.3101011     0.3888479    -0.8106964
H           0.8540508    -0.0798728    -1.6866297
H           1.8066834     1.3084039    -1.1087882
H           0.5271518     0.6335957    -0.0790712
C           6.0583384     1.2233924     0.4841671
H           7.0054354     1.7316455     0.6340757
C           5.0414431     1.8119233    -0.2575226
H           5.1738454     2.7967272    -0.7031243
N           3.8554874     1.2346334    -0.4781961
C           3.6177371     0.0225564     0.0357498
C           4.5789783    -0.6580616     0.8113109
H           4.3677302    -1.6380311     1.2087076
C           5.8032127    -0.0384005     1.0261465
H           6.5572501    -0.5459210     1.6221751
N           0.6787571    -2.1749369    -0.2808646
H           0.4626532    -3.1140480     0.0255016
H          -0.0488653    -1.4949617    -0.1113514
O           2.8141459    -2.7226353     0.2621914
20
413_C7H9N3O_0-1-11-10 (180,) energy =    -511.6609359
C           1.9651247    -1.8421105     0.0411774
N           2.3329788    -0.5308952    -0.2752765
C           1.3575050     0.3334876    -0.9533028
H           0.8482872    -0.2338285    -1.7352165
H           1.8918501     1.1728121    -1.3894859
H           0.6155543     0.7358090    -0.2489163
C           6.0224024     1.2586306     0.5327466
H           6.9523204     1.7881392     0.7135403
C           4.9578635     1.8810156    -0.1072410
H           5.0349869     2.9144488    -0.4421703
N           3.7879425     1.2823232    -0.3536598
C           3.6157202     0.0093810     0.0237470
C           4.6355474    -0.7159948     0.6756849
H           4.4784396    -1.7450097     0.9558603
C           5.8388088    -0.0686628     0.9261856
H           6.6362054    -0.6104368     1.4283352
N           0.6249979    -2.1357882    -0.1839423
H           0.3775766    -3.0355366     0.2066046
H          -0.0743458    -1.4173508    -0.0557329
O           2.7294819    -2.7124474     0.4396391
