22
072_C10H10N2_4-6-14-13 (-165,) energy =    -496.5859070
C           5.6862205     1.2938546     1.4490935
H           6.5427970     1.9466169     1.5935394
C           4.6383302     1.6813151     0.6162476
H           4.6675878     2.6446624     0.1137186
C           3.5368127     0.8448343     0.4262531
H           2.7237266     1.2004071    -0.1943341
C           3.4624036    -0.4041317     1.0674434
C           4.5257994    -0.7784873     1.9133368
H           4.4664348    -1.7380778     2.4144538
C           5.6187539     0.0594044     2.1020270
H           6.4259580    -0.2540738     2.7589337
C           1.0931092    -3.0725589     1.2969483
H           0.7284306    -3.9555123     1.8048652
N           2.1805288    -2.3832061     1.7525750
C           2.3533940    -1.3613659     0.9204245
N           1.4001282    -1.3873975    -0.0828820
C           1.2600180    -0.5436876    -1.2612156
H           0.8004294     0.4204158    -1.0176982
H           0.6210589    -1.0599346    -1.9808490
H           2.2337802    -0.3697137    -1.7246623
C           0.5942478    -2.4808235     0.1649325
H          -0.2358158    -2.7231709    -0.4824677
22
072_C10H10N2_4-6-14-13 (-150,) energy =    -496.5866630
C           5.6653086     1.2961047     1.4187592
H           6.5169962     1.9602061     1.5385499
C           4.5272146     1.7291605     0.7391181
H           4.4820362     2.7381603     0.3376119
C           3.4318410     0.8783393     0.5840910
H           2.5396641     1.2542748     0.0943005
C           3.4612987    -0.4288511     1.0989817
C           4.6094286    -0.8484279     1.7962122
H           4.6226882    -1.8504721     2.2113090
C           5.6968585     0.0048872     1.9536389
H           6.5753197    -0.3394761     2.4930637
C           0.9979899    -3.0004329     1.4277994
H           0.5749139    -3.8279071     1.9818094
N           2.0943561    -2.3207764     1.8837496
C           2.3410372    -1.3753596     0.9851869
N           1.4319465    -1.4358378    -0.0544271
C           1.4007083    -0.6737951    -1.2945753
H           0.8144500     0.2464598    -1.1913993
H           0.9483183    -1.2904935    -2.0750031
H           2.4164309    -0.4149830    -1.5989656
C           0.5716869    -2.4764160     0.2337767
H          -0.2390324    -2.7357445    -0.4314297
22
072_C10H10N2_4-6-14-13 (-135,) energy =    -496.5862532
C           5.6397344     1.3083062     1.4126620
H           6.4854463     1.9799347     1.5333716
C           4.4451929     1.7761495     0.8640606
H           4.3518721     2.8176446     0.5677368
C           3.3576776     0.9151855     0.7121304
H           2.4206751     1.3015368     0.3211760
C           3.4555664    -0.4338802     1.0905768
C           4.6568089    -0.8889562     1.6602885
H           4.7206952    -1.9237542     1.9807926
C           5.7381106    -0.0258295     1.8172006
H           6.6616763    -0.3946921     2.2554782
C           0.8703742    -2.8784179     1.4829467
H           0.3769685    -3.6393227     2.0730859
N           1.9800845    -2.2220769     1.9475078
C           2.3211376    -1.3680782     0.9924530
N           1.4586035    -1.4534375    -0.0821505
C           1.5272985    -0.7577800    -1.3586280
H           0.8590812     0.1108782    -1.3805615
H           1.2382088    -1.4439334    -2.1593833
H           2.5493990    -0.4207724    -1.5369339
C           0.5289247    -2.4235817     0.2343042
H          -0.2597334    -2.6939196    -0.4527723
22
072_C10H10N2_4-6-14-13 (-120,) energy =    -496.5847577
C           5.6204949     1.2757424     1.4270698
H           6.4662060     1.9486870     1.5406104
C           4.3737164     1.7760974     1.0481566
H           4.2419355     2.8412328     0.8769789
C           3.2864056     0.9132369     0.9080421
H           2.3106048     1.3120864     0.6432741
C           3.4365557    -0.4658005     1.1245649
C           4.6896524    -0.9550421     1.5248482
H           4.7978273    -2.0164486     1.7254234
C           5.7734445    -0.0911392     1.6713033
H           6.7389220    -0.4847438     1.9778857
C           0.7511789    -2.7974437     1.5774205
H           0.2017799    -3.4941224     2.1967221
N           1.8684262    -2.1531454     2.0464541
C           2.2871588    -1.3908498     1.0480320
N           1.4653781    -1.5131034    -0.0534523
C           1.6129870    -0.8885012    -1.3588785
H           0.8570084    -0.1103038    -1.5137003
H           1.5100684    -1.6422410    -2.1454508
H           2.6027961    -0.4365238    -1.4312892
C           0.4817173    -2.4199704     0.2863027
H          -0.2893685    -2.7060776    -0.4143023
22
072_C10H10N2_4-6-14-13 (-105,) energy =    -496.5829832
C           5.6194876     1.2902563     1.4100780
H           6.4753297     1.9529183     1.5076025
C           4.3415758     1.8207766     1.2240285
H           4.1980480     2.8973260     1.1844968
C           3.2420041     0.9702303     1.1047718
H           2.2445784     1.3840905     0.9818067
C           3.4090102    -0.4221616     1.1543155
C           4.6948687    -0.9441226     1.3558185
H           4.8234463    -2.0204494     1.4223705
C           5.7931973    -0.0935152     1.4802679
H           6.7845025    -0.5110802     1.6351182
C           0.6334526    -2.6568912     1.6096406
H           0.0202418    -3.2843270     2.2429235
N           1.7275166    -1.9922916     2.1087795
C           2.2397853    -1.3318963     1.0838766
N           1.5021908    -1.5342500    -0.0636570
C           1.7681548    -1.0210703    -1.3979087
H           0.9238219    -0.4229964    -1.7568855
H           1.9425993    -1.8442260    -2.0990141
H           2.6573438    -0.3905985    -1.3656769
C           0.4736619    -2.3910830     0.2736751
H          -0.2486545    -2.7235339    -0.4578227
22
072_C10H10N2_4-6-14-13 (-90,) energy =    -496.5821419
C           5.6072747     1.3009121     1.3773745
H           6.4795491     1.9454475     1.4470384
C           4.3252468     1.8523693     1.4155070
H           4.1962190     2.9266072     1.5176822
C           3.2052541     1.0246994     1.3287892
H           2.2066643     1.4507958     1.3701839
C           3.3537841    -0.3639896     1.2020766
C           4.6457927    -0.9082561     1.1681860
H           4.7667255    -1.9847169     1.0845963
C           5.7658607    -0.0808565     1.2552075
H           6.7616408    -0.5155421     1.2320748
C           0.5093889    -2.5252080     1.6284542
H          -0.1649333    -3.0879080     2.2604427
N           1.5497899    -1.8009972     2.1604637
C           2.1610364    -1.2473152     1.1276487
N           1.5499955    -1.5876543    -0.0602544
C           1.9294766    -1.1824012    -1.4037513
H           1.1069121    -0.6487935    -1.8915716
H           2.1951132    -2.0547852    -2.0104337
H           2.7930710    -0.5190485    -1.3433850
C           0.4885699    -2.4095724     0.2622555
H          -0.1611955    -2.8190328    -0.4976726
22
072_C10H10N2_4-6-14-13 (-75,) energy =    -496.5828491
C           5.5925480     1.3138492     1.3742816
H           6.4770402     1.9423001     1.4360377
C           4.3291472     1.8571347     1.6162990
H           4.2272584     2.9100484     1.8653761
C           3.1935062     1.0512340     1.5355893
H           2.2093742     1.4685901     1.7276544
C           3.3078150    -0.3112602     1.2239294
C           4.5812091    -0.8470741     0.9789380
H           4.6790064    -1.9036554     0.7438224
C           5.7166657    -0.0396518     1.0552547
H           6.6979464    -0.4691756     0.8715877
C           0.3991104    -2.3831791     1.6260494
H          -0.3310574    -2.8751974     2.2549507
N           1.3932762    -1.6019631     2.1638114
C           2.0949016    -1.1605475     1.1335083
N           1.5954612    -1.6428834    -0.0582252
C           2.0635040    -1.3573211    -1.4050238
H           1.2662126    -0.8964556    -1.9975957
H           2.3903892    -2.2756812    -1.9045460
H           2.9063904    -0.6677342    -1.3503634
C           0.5020021    -2.4237198     0.2591231
H          -0.0841759    -2.9131624    -0.5052089
22
072_C10H10N2_4-6-14-13 (-60,) energy =    -496.5845197
C           5.5677587     1.3169819     1.4010243
H           6.4588726     1.9344140     1.4763491
C           4.3294455     1.8199831     1.8071732
H           4.2536749     2.8317118     2.1967336
C           3.1853780     1.0300974     1.7071505
H           2.2204639     1.4142721     2.0235171
C           3.2648552    -0.2812854     1.2133741
C           4.5133248    -0.7770576     0.8063118
H           4.5904694    -1.7961756     0.4363741
C           5.6568562     0.0168663     0.9008706
H           6.6184430    -0.3840449     0.5913681
C           0.2766066    -2.2254410     1.6069277
H          -0.5068187    -2.6355851     2.2304374
N           1.2582218    -1.4214344     2.1299239
C           2.0372364    -1.0977757     1.1094752
N           1.5961381    -1.6800486    -0.0612055
C           2.1408832    -1.5325849    -1.4020501
H           1.3347144    -1.3094183    -2.1074546
H           2.6507811    -2.4471415    -1.7255080
H           2.8559853    -0.7094336    -1.4118158
C           0.4626849    -2.4000803     0.2591337
H          -0.0908627    -2.9450390    -0.4917870
22
072_C10H10N2_4-6-14-13 (-45,) energy =    -496.5860827
C           5.5680214     1.3354278     1.4776126
H           6.3205199     2.0078388     1.8807173
C           5.8866511     0.0001864     1.2152794
H           6.8886971    -0.3696598     1.4159135
C           4.9221252    -0.8640334     0.7033220
H           5.1616241    -1.9014054     0.4927872
C           3.6214685    -0.4051089     0.4351109
C           3.3136101     0.9403837     0.6935059
H           2.3242939     1.3232734     0.4590330
C           4.2801522     1.8025567     1.2128441
H           4.0278598     2.8431266     1.3993493
C           1.7123831    -2.8679234    -1.3276944
H           1.6359129    -3.6283955    -2.0935502
N           2.8868933    -2.1993608    -1.0994222
C           2.6336882    -1.3509661    -0.1128162
N           1.3211691    -1.4496850     0.3038859
C           0.6637058    -0.7614098     1.4048678
H           0.0778839     0.0950018     1.0515203
H           1.4130463    -0.4069996     2.1139188
H          -0.0054409    -1.4576337     1.9179104
C           0.7321929    -2.4245955    -0.4761544
H          -0.3017982    -2.7066222    -0.3402214
22
072_C10H10N2_4-6-14-13 (-30,) energy =    -496.5866853
C           5.6017505     1.3260833     1.4695807
H           6.3639400     1.9971200     1.8563156
C           5.9393337     0.0286677     1.0734325
H           6.9681348    -0.3131622     1.1505157
C           4.9634884    -0.8334326     0.5829903
H           5.2163093    -1.8401434     0.2677915
C           3.6239782    -0.4163599     0.4775772
C           3.2997917     0.8972105     0.8569575
H           2.2878944     1.2686377     0.7312648
C           4.2803298     1.7568493     1.3541869
H           4.0099328     2.7705718     1.6380193
C           1.7973633    -2.9829900    -1.2159241
H           1.7668383    -3.8027218    -1.9214314
N           2.9559799    -2.2996769    -0.9638314
C           2.6452707    -1.3674233    -0.0717595
N           1.3079955    -1.4387238     0.2697458
C           0.5778355    -0.6883189     1.2812192
H           0.1291400     0.2216441     0.8665471
H           1.2491415    -0.4125921     2.0963610
H          -0.2189772    -1.3195559     1.6823586
C           0.7670008    -2.4731670    -0.4672159
H          -0.2763072    -2.7396580    -0.3803920
22
072_C10H10N2_4-6-14-13 (-15,) energy =    -496.5860265
C           5.6391091     1.3338355     1.4522310
H           6.4201386     1.9986982     1.8109082
C           5.9654529     0.0886577     0.9065822
H           7.0054251    -0.2193312     0.8362786
C           4.9667385    -0.7643950     0.4510586
H           5.2110452    -1.7296428     0.0218781
C           3.6083961    -0.3995453     0.5360608
C           3.2953275     0.8676218     1.0585908
H           2.2715091     1.2206088     1.0819341
C           4.3013844     1.7190272     1.5187786
H           4.0329232     2.6935261     1.9184116
C           1.8066117    -3.0449100    -1.0586299
H           1.8001445    -3.9168571    -1.6991357
N           2.9585642    -2.3590786    -0.7960193
C           2.6206194    -1.3502804     0.0001060
N           1.2648177    -1.3830426     0.2759024
C           0.4780310    -0.5568134     1.1804215
H           0.2106973     0.4031170     0.7250123
H           1.0297773    -0.3729296     2.1049241
H          -0.4417015    -1.0921766     1.4260276
C           0.7476175    -2.4650975    -0.4081027
H          -0.3035543    -2.7090734    -0.3589642
22
072_C10H10N2_4-6-14-13 (0,) energy =    -496.5851854
C           5.7184402     1.3638654     1.4232037
H           6.5078692     2.0420793     1.7354264
C           6.0223124     0.2057233     0.7014044
H           7.0541535    -0.0234511     0.4479740
C           5.0128237    -0.6614390     0.3020689
H           5.2413846    -1.5609789    -0.2577121
C           3.6616177    -0.3996305     0.6112841
C           3.3707797     0.7686065     1.3379941
H           2.3550965     1.0246221     1.6064974
C           4.3891053     1.6367720     1.7369602
H           4.1328448     2.5320255     2.2976388
C           1.8879267    -3.1556956    -0.8210481
H           1.9037814    -4.0855503    -1.3739042
N           3.0337505    -2.4688699    -0.5438601
C           2.6729932    -1.3861793     0.1391096
N           1.2984446    -1.3629013     0.3094201
C           0.4457451    -0.3904108     0.9776553
H           0.5258039     0.5948676     0.5089570
H           0.6958372    -0.3073422     2.0394069
H          -0.5888321    -0.7285903     0.8933744
C           0.8026030    -2.4949301    -0.3064595
H          -0.2559531    -2.7098065    -0.3135919
22
072_C10H10N2_4-6-14-13 (15,) energy =    -496.5860261
C           5.6848549     1.3896004     1.4008724
H           6.4602078     2.0967917     1.6826282
C           5.9679850     0.3472367     0.5131900
H           6.9680961     0.2377953     0.1018934
C           4.9760854    -0.5559837     0.1486769
H           5.1880477    -1.3702563    -0.5351496
C           3.6669093    -0.4377204     0.6561542
C           3.4027706     0.5966061     1.5711729
H           2.4308068     0.6884517     2.0403696
C           4.4009265     1.5037922     1.9309019
H           4.1712942     2.2946264     2.6403246
C           1.8934056    -3.2739293    -0.6083077
H           1.9036172    -4.2515026    -1.0718122
N           3.0496432    -2.6027522    -0.3275124
C           2.6893619    -1.4570269     0.2411649
N           1.3104974    -1.3646065     0.3150468
C           0.4725839    -0.2571246     0.7523478
H           0.8785575     0.6916068     0.3945412
H           0.3841022    -0.2209869     1.8437615
H          -0.5249218    -0.3895433     0.3277083
C           0.8063227    -2.5313423    -0.2240613
H          -0.2577587    -2.7086386    -0.2803963
22
072_C10H10N2_4-6-14-13 (30,) energy =    -496.5866854
C           5.6501587     1.3989124     1.3925785
H           6.4123580     2.1238305     1.6652119
C           5.8988092     0.4575992     0.3894393
H           6.8580616     0.4475234    -0.1214014
C           4.9219485    -0.4678898     0.0355766
H           5.1071718    -1.2058804    -0.7375969
C           3.6706196    -0.4727404     0.6786177
C           3.4395647     0.4628592     1.7012460
H           2.5077974     0.4461756     2.2573284
C           4.4196760     1.3934970     2.0490315
H           4.2229727     2.1060228     2.8458537
C           1.8574058    -3.3402965    -0.4534530
H           1.8466125    -4.3529310    -0.8343563
N           3.0310695    -2.6933015    -0.1763521
C           2.6902854    -1.4926970     0.2751401
N           1.3165002    -1.3423660     0.2863033
C           0.5250726    -0.1606127     0.5968275
H           1.0866874     0.7401578     0.3431834
H           0.2514511    -0.1224464     1.6574832
H          -0.3902552    -0.1819888     0.0001698
C           0.7857861    -2.5290569    -0.1784280
H          -0.2813659    -2.6699400    -0.2699940
22
072_C10H10N2_4-6-14-13 (45,) energy =    -496.5860826
C           5.6117253     1.4005938     1.3940060
H           6.3567528     2.1439342     1.6646860
C           5.8222894     0.5614215     0.2964353
H           6.7322582     0.6518742    -0.2908528
C           4.8662434    -0.3883312    -0.0546422
H           5.0230513    -1.0469011    -0.9028890
C           3.6841218    -0.5225691     0.6929018
C           3.4858571     0.3190662     1.7993449
H           2.5952906     0.2065216     2.4113529
C           4.4424636     1.2744570     2.1448863
H           4.2773306     1.9123835     3.0091774
C           1.8324232    -3.4169195    -0.3127831
H           1.7998721    -4.4567723    -0.6100147
N           3.0194549    -2.7892531    -0.0379341
C           2.7022746    -1.5449491     0.2912915
N           1.3365426    -1.3493595     0.2402602
C           0.5869504    -0.1191729     0.4473820
H           1.2446423     0.7386393     0.3008425
H           0.1628835    -0.0715379     1.4570273
H          -0.2283417    -0.0663421    -0.2793942
C           0.7804656    -2.5514936    -0.1489046
H          -0.2862310    -2.6631412    -0.2786945
22
072_C10H10N2_4-6-14-13 (60,) energy =    -496.5845197
C           5.5915326     1.3679306     1.3809056
H           6.3366660     2.1123507     1.6484882
C           5.7191364     0.6425661     0.1939236
H           6.5628278     0.8233217    -0.4668359
C           4.7616142    -0.3095114    -0.1518047
H           4.8564961    -0.8783590    -1.0716668
C           3.6691648    -0.5618009     0.6924646
C           3.5488319     0.1733245     1.8821210
H           2.7156041    -0.0233257     2.5518043
C           4.5045925     1.1307129     2.2239250
H           4.4037211     1.6850506     3.1532778
C           1.7105815    -3.4334389    -0.1917785
H           1.6311084    -4.4898465    -0.4118348
N           2.9216768    -2.8511838     0.0870391
C           2.6623009    -1.5706906     0.3015218
N           1.3131605    -1.3066277     0.1823593
C           0.6326037    -0.0254605     0.2910142
H           1.3710927     0.7767602     0.2802825
H           0.0547939     0.0389115     1.2200091
H          -0.0461917     0.1070315    -0.5569177
C           0.7039796    -2.5030410    -0.1389962
H          -0.3618680    -2.5674545    -0.3036092
22
072_C10H10N2_4-6-14-13 (75,) energy =    -496.5828491
C           5.5814097     1.3979703     1.3935980
H           6.3208356     2.1535811     1.6453909
C           5.6015648     0.7893240     0.1369757
H           6.3560721     1.0712828    -0.5925764
C           4.6516558    -0.1792876    -0.1873051
H           4.6659492    -0.6588473    -1.1616833
C           3.6767983    -0.5607904     0.7458100
C           3.6626210     0.0588638     2.0045420
H           2.9147503    -0.2365690     2.7357310
C           4.6100744     1.0312460     2.3269024
H           4.5931051     1.4972228     3.3085896
C           1.6788928    -3.4553399     0.0069138
H           1.5751928    -4.5249292    -0.1194483
N           2.8923924    -2.8866028     0.3101906
C           2.6655058    -1.5863644     0.3908300
N           1.3369895    -1.2931551     0.1638215
C           0.7053787     0.0158147     0.1169336
H           1.4499123     0.7791411     0.3448792
H          -0.1029113     0.0798630     0.8530709
H           0.2932591     0.2088582    -0.8793237
C           0.7051944    -2.4944534    -0.0889308
H          -0.3508652    -2.5416672    -0.3122448
22
072_C10H10N2_4-6-14-13 (90,) energy =    -496.5821414
C           5.5841439     1.3907131     1.4121895
H           6.3346424     2.1413648     1.6454679
C           5.4548381     0.9127903     0.1067959
H           6.1057999     1.2879190    -0.6784429
C           4.4930337    -0.0528217    -0.1922238
H           4.3987556    -0.4345115    -1.2050813
C           3.6486891    -0.5516417     0.8101753
C           3.7890334    -0.0676471     2.1188957
H           3.1472736    -0.4610289     2.9023324
C           4.7508079     0.8978641     2.4181590
H           4.8522038     1.2615921     3.4372200
C           1.6388813    -3.4693957     0.1849510
H           1.5166101    -4.5438445     0.1480475
N           2.8327603    -2.8986689     0.5576155
C           2.6363074    -1.5931087     0.4957521
N           1.3514155    -1.2961879     0.0942586
C           0.7597312     0.0182119    -0.0940878
H           1.4991629     0.7793089     0.1578032
H          -0.1130112     0.1441433     0.5553649
H           0.4495852     0.1571524    -1.1353268
C           0.7107533    -2.5027417    -0.1056588
H          -0.3191899    -2.5497257    -0.4286939
22
072_C10H10N2_4-6-14-13 (105,) energy =    -496.5829834
C           5.5990810     1.3436815     1.4506882
H           6.3731549     2.0756757     1.6653668
C           5.3078403     1.0004400     0.1291297
H           5.8596789     1.4579404    -0.6877426
C           4.3181593     0.0563461    -0.1462967
H           4.1069000    -0.2267926    -1.1741555
C           3.5962527    -0.5447299     0.8960833
C           3.9068676    -0.2035290     2.2203866
H           3.3693788    -0.6879717     3.0302289
C           4.8998454     0.7364218     2.4957553
H           5.1297452     0.9925116     3.5265796
C           1.5918381    -3.4811892     0.3799780
H           1.4542790    -4.5529159     0.4368466
N           2.7441656    -2.8843757     0.8315760
C           2.5816965    -1.5896791     0.6163544
N           1.3644742    -1.3279109     0.0233134
C           0.8021051    -0.0333357    -0.3261753
H           1.5197822     0.7469317    -0.0705276
H          -0.1264804     0.1443037     0.2266952
H           0.5908001     0.0189792    -1.3995417
C           0.7264258    -2.5434229    -0.1225670
H          -0.2616245    -2.6154128    -0.5537509
22
072_C10H10N2_4-6-14-13 (120,) energy =    -496.5847577
C           5.6108314     1.3523592     1.4497319
H           6.3993849     2.0723005     1.6518116
C           5.1653218     1.1509077     0.1423132
H           5.6134441     1.7044904    -0.6786090
C           4.1570893     0.2225118    -0.1183638
H           3.8354811     0.0467236    -1.1416127
C           3.5656545    -0.5021845     0.9286150
C           4.0354429    -0.3062544     2.2365637
H           3.6018589    -0.8911547     3.0418020
C           5.0475566     0.6163819     2.4949476
H           5.3984911     0.7605671     3.5133424
C           1.5355478    -3.4307648     0.5344219
H           1.3725642    -4.4910989     0.6753656
N           2.6653720    -2.8128708     1.0088240
C           2.5439182    -1.5380385     0.6721439
N           1.3711563    -1.3126037    -0.0187355
C           0.8470518    -0.0484167    -0.5118735
H           1.4252281     0.7716330    -0.0846881
H          -0.1993049     0.0626756    -0.2115446
H           0.9091318     0.0071613    -1.6046321
C           0.7225431    -2.5281704    -0.1031050
H          -0.2372088    -2.6238356    -0.5899289
22
072_C10H10N2_4-6-14-13 (135,) energy =    -496.5862533
C           5.6012349     1.3410361     1.4705587
H           6.3867188     2.0653604     1.6686681
C           5.0483283     1.2378257     0.1936877
H           5.4106476     1.8723920    -0.6108501
C           4.0422346     0.3055208    -0.0624345
H           3.6484646     0.2073641    -1.0701001
C           3.5607108    -0.5261533     0.9618907
C           4.1388548    -0.4271741     2.2388596
H           3.7875550    -1.0916601     3.0215889
C           5.1475909     0.4992487     2.4898117
H           5.5811867     0.5663163     3.4841052
C           1.4827030    -3.4325455     0.7427404
H           1.2873689    -4.4695068     0.9819985
N           2.6035486    -2.7921503     1.2028323
C           2.5338522    -1.5559694     0.7287598
N           1.3937679    -1.3777772    -0.0291896
C           0.8998239    -0.1591485    -0.6528778
H           1.3350530     0.7086885    -0.1553982
H          -0.1877663    -0.1158600    -0.5486407
H           1.1534858    -0.1206549    -1.7185803
C           0.7205833    -2.5829164    -0.0187475
H          -0.2200085    -2.7076335    -0.5353494
22
072_C10H10N2_4-6-14-13 (150,) energy =    -496.5866629
C           5.6150466     1.3473412     1.4964626
H           6.4004863     2.0673848     1.7095020
C           4.9676914     1.3584142     0.2613562
H           5.2555060     2.0794963    -0.4992564
C           3.9588293     0.4343500    -0.0144429
H           3.5043015     0.4317730    -0.9996319
C           3.5715357    -0.5129977     0.9485435
C           4.2432128    -0.5237779     2.1851055
H           3.9579068    -1.2689155     2.9199112
C           5.2524207     0.3953423     2.4537897
H           5.7568211     0.3719957     3.4162235
C           1.4040928    -3.3564666     0.8712627
H           1.1643332    -4.3613157     1.1928589
N           2.5303924    -2.7152093     1.3095505
C           2.5269998    -1.5240617     0.7237075
N           1.4114298    -1.3738577    -0.0787195
C           0.9526511    -0.1987923    -0.8056465
H           1.2524885     0.7076021    -0.2766237
H          -0.1382075    -0.2249454    -0.8638036
H           1.3571061    -0.1671687    -1.8238025
C           0.6955995    -2.5504716     0.0166255
H          -0.2311012    -2.6893793    -0.5209118
22
072_C10H10N2_4-6-14-13 (165,) energy =    -496.5859070
C           5.6352182     1.3400005     1.5070562
H           6.4274519     2.0510895     1.7247758
C           4.8761774     1.4657871     0.3452226
H           5.0794373     2.2713027    -0.3556807
C           3.8560313     0.5555568     0.0625725
H           3.3177539     0.6623712    -0.8709753
C           3.5716969    -0.5032183     0.9427706
C           4.3534327    -0.6224058     2.1094647
H           4.1404907    -1.4427199     2.7856327
C           5.3703730     0.2843824     2.3847223
H           5.9575837     0.1702694     3.2922092
C           1.3387141    -3.2951173     1.0170073
H           1.0657941    -4.2612071     1.4204463
N           2.4620500    -2.6383247     1.4317441
C           2.5101222    -1.5034204     0.7416707
N           1.4204060    -1.4057788    -0.1062701
C           0.9995250    -0.3076660    -0.9647577
H           1.1114159     0.6472919    -0.4463003
H          -0.0553912    -0.4469945    -1.2104998
H           1.5726847    -0.2793939    -1.8978738
C           0.6769658    -2.5557775     0.0704563
H          -0.2344370    -2.7244207    -0.4843112
22
072_C10H10N2_4-6-14-13 (180,) energy =    -496.5851854
C           5.6859420     1.3114260     1.5050685
H           6.5160911     1.9853047     1.6984539
C           4.7767634     1.5863410     0.4863045
H           4.8928385     2.4790904    -0.1228071
C           3.7080194     0.7239127     0.2334981
H           3.0299548     0.9812898    -0.5685262
C           3.5239643    -0.4408909     0.9995306
C           4.4534729    -0.7046252     2.0273591
H           4.3156214    -1.6012268     2.6205514
C           5.5151387     0.1568540     2.2747298
H           6.2148407    -0.0739500     3.0738523
C           1.2319736    -3.1816339     1.1696506
H           0.9225279    -4.1077027     1.6356621
N           2.3349844    -2.5005227     1.5951052
C           2.4366863    -1.4211685     0.8247565
N           1.4071461    -1.3948661    -0.1016955
C           1.0964983    -0.4243391    -1.1413922
H           0.8997279     0.5637918    -0.7150534
H           0.1981388    -0.7591378    -1.6635726
H           1.9099938    -0.3489055    -1.8689001
C           0.6407297    -2.5210933     0.1239845
H          -0.2328787    -2.7325807    -0.4750543
