18
454_C9H7NO_4-6-14-12 (-165,) energy =    -477.1239685
C           6.0992404     0.9140753    -0.1195448
H           7.0242882     1.4767294    -0.1990370
C           5.4915229     0.6797632     1.1141804
H           5.9364927     1.0550477     2.0319946
C           4.3079624    -0.0495239     1.1577058
H           3.8075345    -0.2588798     2.0966672
C           3.7599051    -0.5153512    -0.0496496
N           4.3453814    -0.2994442    -1.2449833
C           5.4832737     0.3970176    -1.2615752
H           5.9284209     0.5525993    -2.2434376
C           0.8054518    -2.6832648    -0.4579490
H           0.1019830    -3.3557715    -0.9288215
C           1.9600121    -2.0841428    -1.0481073
H           2.3290110    -2.1986751    -2.0563251
C           2.5373796    -1.3088269    -0.0776982
O           1.8106824    -1.4065726     1.0828992
C           0.7638781    -2.2394811     0.8303801
H           0.0890899    -2.4061720     1.6562496
18
454_C9H7NO_4-6-14-12 (-150,) energy =    -477.1222656
C           6.0978787     0.9131539    -0.1128521
H           7.0324038     1.4612278    -0.1833490
C           5.5240048     0.6065538     1.1212640
H           6.0073539     0.9052557     2.0477518
C           4.3273819    -0.1018181     1.1523579
H           3.8540233    -0.3699571     2.0905307
C           3.7278306    -0.4655130    -0.0655500
N           4.2838256    -0.1852231    -1.2612575
C           5.4377547     0.4858981    -1.2668995
H           5.8580004     0.6962086    -2.2495229
C           0.8435569    -2.7351249    -0.4232780
H           0.1915536    -3.4808972    -0.8564157
C           2.0114123    -2.1580765    -1.0100011
H           2.4435515    -2.3683285    -1.9771247
C           2.5015136    -1.2569021    -0.1026970
O           1.7149279    -1.2641790     1.0230457
C           0.7119900    -2.1586888     0.8048522
H          -0.0076305    -2.2584238     1.6032330
18
454_C9H7NO_4-6-14-12 (-135,) energy =    -477.1195652
C           6.0927189     0.9163383    -0.1136886
H           7.0338733     1.4543245    -0.1742911
C           5.5526178     0.5289454     1.1129879
H           6.0706582     0.7499320     2.0424965
C           4.3463307    -0.1635803     1.1297715
H           3.8980965    -0.4958248     2.0599927
C           3.7011453    -0.4236216    -0.0911354
N           4.2265953    -0.0707513    -1.2806086
C           5.3921106     0.5818455    -1.2739262
H           5.7871932     0.8540850    -2.2517087
C           0.8770688    -2.7796087    -0.3775051
H           0.2714125    -3.5897172    -0.7593684
C           2.0637144    -2.2353284    -0.9592400
H           2.5573493    -2.5420587    -1.8698468
C           2.4723399    -1.2177830    -0.1397368
O           1.6249296    -1.1298174     0.9385412
C           0.6588736    -2.0739392     0.7675452
H          -0.1066616    -2.1032883     1.5280502
18
454_C9H7NO_4-6-14-12 (-120,) energy =    -477.1161231
C           6.0931936     0.9322845    -0.1016816
H           7.0342298     1.4719159    -0.1496932
C           5.5943450     0.4455621     1.1068496
H           6.1452492     0.5868793     2.0329569
C           4.3865411    -0.2448834     1.1056439
H           3.9692265    -0.6531161     2.0202308
C           3.6976986    -0.4001786    -0.1086570
N           4.1849768     0.0457895    -1.2817786
C           5.3533726     0.6952417    -1.2609368
H           5.7167314     1.0457303    -2.2259496
C           0.9104506    -2.8142211    -0.3225104
H           0.3420970    -3.6758614    -0.6442750
C           2.1315732    -2.3223035    -0.8814562
H           2.6909390    -2.7318288    -1.7103607
C           2.4679584    -1.2029258    -0.1706761
O           1.5467419    -1.0035482     0.8302418
C           0.6037927    -1.9786808     0.7084337
H          -0.2154268    -1.9273918     1.4095288
18
454_C9H7NO_4-6-14-12 (-105,) energy =    -477.1126275
C           6.0735434     0.9742386    -0.0969684
H           6.9987957     1.5410936    -0.1404240
C           5.6520596     0.3603949     1.0821848
H           6.2477043     0.4280353     1.9886502
C           4.4600855    -0.3584318     1.0730892
H           4.1005806    -0.8629890     1.9642728
C           3.7133692    -0.4181331    -0.1136308
N           4.1249435     0.1541341    -1.2591819
C           5.2777853     0.8322366    -1.2343605
H           5.5802994     1.2857045    -2.1771193
C           0.9101842    -2.8357749    -0.2593594
H           0.3584087    -3.7299940    -0.5141580
C           2.1978590    -2.4415876    -0.7467711
H           2.8281950    -2.9742635    -1.4447993
C           2.4836665    -1.2355876    -0.1728144
O           1.4666518    -0.8823397     0.6813957
C           0.5169515    -1.8560792     0.5996401
H          -0.3693951    -1.6956044     1.1945416
18
454_C9H7NO_4-6-14-12 (-90,) energy =    -477.1109024
C           6.0287364     1.0460844    -0.1143446
H           6.9101157     1.6770093    -0.1821603
C           5.7819821     0.2624834     1.0107407
H           6.4691153     0.2638023     1.8526423
C           4.6330957    -0.5265168     1.0352424
H           4.3994114    -1.1537033     1.8897771
C           3.7707216    -0.5037181    -0.0684696
N           4.0039150     0.2507678    -1.1573387
C           5.1100324     1.0017741    -1.1651178
H           5.2705048     1.5999624    -2.0608367
C           0.8815701    -2.8358664    -0.2251783
H           0.3171053    -3.7356886    -0.4269779
C           2.2727469    -2.6045280    -0.4863833
H           2.9795973    -3.2902317    -0.9323426
C           2.5406567    -1.3333779    -0.0725961
O           1.4023346    -0.7606648     0.4346549
C           0.4082717    -1.6879870     0.3303398
H          -0.5598777    -1.3762132     0.6918041
18
454_C9H7NO_4-6-14-12 (-75,) energy =    -477.1121744
C           6.0076672     1.0676520    -0.1298663
H           6.8714548     1.7199810    -0.2175808
C           5.8842180     0.1642488     0.9232800
H           6.6499634     0.0952745     1.6913096
C           4.7476849    -0.6407192     0.9825341
H           4.5993936    -1.3476948     1.7927154
C           3.7846639    -0.5291512    -0.0292101
N           3.8908277     0.3527799    -1.0403054
C           4.9813903     1.1236436    -1.0762649
H           5.0390733     1.8247135    -1.9077037
C           0.8841629    -2.8366421    -0.1851771
H           0.3244842    -3.7501620    -0.3306084
C           2.3061189    -2.6690631    -0.2420609
H           3.0480621    -3.4270214    -0.4520479
C           2.5551507    -1.3504984     0.0121300
O           1.3713015    -0.6847193     0.1961889
C           0.3731563    -1.6039918     0.0825615
H          -0.6275875    -1.2261029     0.2274409
18
454_C9H7NO_4-6-14-12 (-60,) energy =    -477.1145778
C           6.0077792     1.0659064    -0.1364247
H           6.8743938     1.7140361    -0.2262392
C           5.9356445     0.0799122     0.8459476
H           6.7458036    -0.0581718     1.5570168
C           4.7922493    -0.7125886     0.9153964
H           4.6808440    -1.4748668     1.6801744
C           3.7699806    -0.5116078    -0.0243688
N           3.8248959     0.4523935    -0.9624958
C           4.9225963     1.2121349    -1.0038992
H           4.9366456     1.9811903    -1.7750017
C           0.9021447    -2.8515082    -0.1170242
H           0.3594447    -3.7838824    -0.1875568
C           2.3210648    -2.6723483    -0.0646007
H           3.0806567    -3.4410065    -0.1021227
C           2.5438305    -1.3252861     0.0282650
O           1.3469187    -0.6600792     0.0038770
C           0.3667510    -1.5999676    -0.0718544
H          -0.6440338    -1.2209696    -0.0732047
18
454_C9H7NO_4-6-14-12 (-45,) energy =    -477.1169148
C           5.9947612     1.0721324    -0.1299599
H           6.8660886     1.7148587    -0.2114548
C           5.9534950     0.0129551     0.7763292
H           6.7942624    -0.1891366     1.4346202
C           4.8040933    -0.7687948     0.8418085
H           4.7179811    -1.5831340     1.5545256
C           3.7397115    -0.4837453    -0.0296729
N           3.7658855     0.5490798    -0.8929678
C           4.8714404     1.2974942    -0.9284873
H           4.8596723     2.1240172    -1.6377749
C           0.8998377    -2.8519721    -0.0477439
H           0.3684229    -3.7933818    -0.0378615
C           2.3091266    -2.6479743     0.0792623
H           3.0727840    -3.4055573     0.1892030
C           2.5183119    -1.2950215     0.0133031
O           1.3225542    -0.6564815    -0.1747716
C           0.3559863    -1.6115369    -0.1984257
H          -0.6541088    -1.2505576    -0.3197261
18
454_C9H7NO_4-6-14-12 (-30,) energy =    -477.1185622
C           5.9896715     1.0824085    -0.1212336
H           6.8609297     1.7264106    -0.1915883
C           5.9782724    -0.0405956     0.7068137
H           6.8445262    -0.2939604     1.3122051
C           4.8299812    -0.8225823     0.7626094
H           4.7730861    -1.6858157     1.4184148
C           3.7289058    -0.4699076    -0.0380434
N           3.7290538     0.6205582    -0.8276477
C           4.8363944     1.3665343    -0.8547243
H           4.8001876     2.2411675    -1.5029283
C           0.8978150    -2.8456571     0.0244416
H           0.3647590    -3.7814700     0.1181896
C           2.2954132    -2.6196936     0.2138872
H           3.0460849    -3.3557821     0.4661105
C           2.5129323    -1.2836367    -0.0118190
O           1.3317912    -0.6803755    -0.3466883
C           0.3673820    -1.6358151    -0.3128006
H          -0.6316868    -1.2990916    -0.5446919
18
454_C9H7NO_4-6-14-12 (-15,) energy =    -477.1193813
C           5.9831557     1.0937025    -0.1047017
H           6.8503631     1.7443805    -0.1613130
C           6.0051602    -0.0881093     0.6376058
H           6.8960350    -0.3846126     1.1848956
C           4.8632846    -0.8787890     0.6784278
H           4.8428676    -1.7928026     1.2635778
C           3.7262727    -0.4695039    -0.0428272
N           3.6978546     0.6732638    -0.7540616
C           4.8026102     1.4231362    -0.7719260
H           4.7401354     2.3404018    -1.3561077
C           0.8810357    -2.8263742     0.0918255
H           0.3323540    -3.7412654     0.2666277
C           2.2640510    -2.5822663     0.3471221
H           2.9825540    -3.2847083     0.7457971
C           2.5137207    -1.2859538    -0.0321444
O           1.3622527    -0.7252078    -0.5124961
C           0.3878341    -1.6658380    -0.4273635
H          -0.5888945    -1.3587994    -0.7694758
18
454_C9H7NO_4-6-14-12 (0,) energy =    -477.1195960
C           5.9736336     1.1156662    -0.0820727
H           6.8339543     1.7765804    -0.1224288
C           6.0331330    -0.1213599     0.5621173
H           6.9493019    -0.4547370     1.0423040
C           4.9008411    -0.9258610     0.5820989
H           4.9188995    -1.8922483     1.0759283
C           3.7287663    -0.4674044    -0.0484150
N           3.6669240     0.7247985    -0.6707705
C           4.7665631     1.4822899    -0.6781243
H           4.6761434     2.4388566    -1.1913204
C           0.8647484    -2.7977850     0.1509895
H           0.2941687    -3.6810534     0.4017653
C           2.2269491    -2.5244080     0.4767665
H           2.8991890    -3.1652328     1.0298126
C           2.5194310    -1.2881648    -0.0467641
O           1.4109983    -0.7906000    -0.6752497
C           0.4238451    -1.7122084    -0.5468835
H          -0.5205680    -1.4515041    -1.0001465
18
454_C9H7NO_4-6-14-12 (15,) energy =    -477.1193813
C           5.9664451     1.1185157    -0.0550511
H           6.8222659     1.7861040    -0.0781757
C           6.0567618    -0.1649260     0.4860552
H           6.9945091    -0.5310826     0.8955132
C           4.9296619    -0.9775568     0.4832376
H           4.9739297    -1.9876924     0.8780834
C           3.7292807    -0.4740690    -0.0516545
N           3.6392548     0.7603584    -0.5814308
C           4.7366715     1.5211316    -0.5774964
H           4.6248244     2.5118207    -1.0163246
C           0.8402554    -2.7659630     0.2111919
H           0.2415616    -3.6066413     0.5328414
C           2.1776788    -2.4542319     0.6005772
H           2.7965984    -3.0089190     1.2918615
C           2.5220162    -1.2983747    -0.0567100
O           1.4671642    -0.8809539    -0.8209748
C           0.4636570    -1.7784242    -0.6505447
H          -0.4409583    -1.5783642    -1.2045840
18
454_C9H7NO_4-6-14-12 (30,) energy =    -477.1185621
C           5.9608491     1.1252619    -0.0359200
H           6.8114950     1.7998643    -0.0458380
C           6.0806553    -0.1928113     0.4059582
H           7.0376158    -0.5807973     0.7447445
C           4.9578504    -1.0126595     0.3867018
H           5.0195087    -2.0521270     0.6936191
C           3.7337559    -0.4771861    -0.0522123
N           3.6154749     0.7893028    -0.4933533
C           4.7094944     1.5550594    -0.4810602
H           4.5770087     2.5727448    -0.8460562
C           0.8159200    -2.7242605     0.2646673
H           0.1846499    -3.5143919     0.6466078
C           2.1282577    -2.3717387     0.7048027
H           2.6927394    -2.8316385     1.5040524
C           2.5320591    -1.3121132    -0.0681599
O           1.5354408    -0.9826552    -0.9452840
C           0.5110846    -1.8490886    -0.7353061
H          -0.3499829    -1.7171485    -1.3728358
18
454_C9H7NO_4-6-14-12 (45,) energy =    -477.1169148
C           5.9580822     1.1264997    -0.0218106
H           6.8030322     1.8084042    -0.0255726
C           6.1079908    -0.2166481     0.3222908
H           7.0828300    -0.6179211     0.5863871
C           4.9891309    -1.0437476     0.2978459
H           5.0670593    -2.1017832     0.5281019
C           3.7434316    -0.4893307    -0.0405244
N           3.5957127     0.8018050    -0.3924330
C           4.6846344     1.5749191    -0.3789350
H           4.5300913     2.6135419    -0.6683275
C           0.7802233    -2.6744774     0.3034447
H           0.1073718    -3.4059382     0.7288715
C           2.0657722    -2.2868122     0.7942798
H           2.5651038    -2.6520498     1.6811059
C           2.5461546    -1.3364237    -0.0686168
O           1.6190308    -1.0966315    -1.0463081
C           0.5644391    -1.9210083    -0.8113998
H          -0.2448136    -1.8581487    -1.5230671
18
454_C9H7NO_4-6-14-12 (60,) energy =    -477.1145778
C           5.9641521     1.1306158    -0.0077890
H           6.8023964     1.8208815    -0.0140603
C           6.1444920    -0.2303976     0.2321341
H           7.1361336    -0.6380517     0.4096425
C           5.0298888    -1.0656563     0.2167684
H           5.1256962    -2.1357143     0.3722080
C           3.7642234    -0.5031417    -0.0074034
N           3.5860142     0.8071432    -0.2599725
C           4.6683410     1.5897161    -0.2560169
H           4.4901741     2.6442892    -0.4618678
C           0.7478766    -2.6225512     0.3360427
H           0.0280172    -3.2919097     0.7861332
C           1.9981849    -2.1930910     0.8841977
H           2.4181895    -2.4576086     1.8448483
C           2.5671820    -1.3600442    -0.0405188
O           1.7270259    -1.2244513    -1.1135729
C           0.6390905    -2.0043377    -0.8726833
H          -0.1066911    -2.0187482    -1.6530226
18
454_C9H7NO_4-6-14-12 (75,) energy =    -477.1121744
C           5.9677505     1.1268510    -0.0121441
H           6.8057401     1.8174970    -0.0238782
C           6.1612709    -0.2473309     0.1089686
H           7.1615929    -0.6647071     0.1873642
C           5.0441864    -1.0811837     0.1108762
H           5.1457342    -2.1592281     0.1864190
C           3.7696261    -0.5069073     0.0150338
N           3.5772234     0.8184735    -0.1181343
C           4.6591075     1.6022284    -0.1284174
H           4.4702183     2.6695219    -0.2348229
C           0.7028359    -2.5675011     0.3474438
H          -0.0635777    -3.1740828     0.8095887
C           1.8985182    -2.0639964     0.9558057
H           2.2209477    -2.1991231     1.9789650
C           2.5622621    -1.3611446    -0.0089150
O           1.8365518    -1.3755325    -1.1715740
C           0.7200365    -2.1190552    -0.9374059
H           0.0548916    -2.2394088    -1.7790563
18
454_C9H7NO_4-6-14-12 (90,) energy =    -477.1109024
C           5.9875577     1.1071533     0.0070829
H           6.8446774     1.7741071     0.0107207
C           6.1443294    -0.2757383    -0.0543031
H           7.1335959    -0.7231283    -0.1006270
C           5.0037345    -1.0770525    -0.0543444
H           5.0763229    -2.1590952    -0.1003369
C           3.7449313    -0.4655034     0.0073896
N           3.5875608     0.8690226     0.0668784
C           4.6913798     1.6234425     0.0660157
H           4.5302306     2.6992824     0.1159425
C           0.6810245    -2.5381857     0.3639443
H          -0.1139062    -3.0958278     0.8394908
C           1.7657126    -1.8517951     1.0038178
H           1.9599858    -1.7764586     2.0646144
C           2.5124610    -1.2915912     0.0101596
O           1.9616461    -1.5911675    -1.2096511
C           0.8511271    -2.3455830    -0.9717982
H           0.3039800    -2.6588837    -1.8479521
18
454_C9H7NO_4-6-14-12 (105,) energy =    -477.1126275
C           6.0154103     1.0604744     0.0742904
H           6.9050209     1.6802502     0.1357366
C           6.0963466    -0.2994853    -0.2237270
H           7.0582402    -0.7757500    -0.3939632
C           4.9208598    -1.0427860    -0.2814453
H           4.9378035    -2.1063876    -0.4970716
C           3.6963088    -0.3928685    -0.0634166
N           3.6133867     0.9137441     0.2448989
C           4.7539413     1.6100823     0.3059876
H           4.6512231     2.6653359     0.5546468
C           0.6878663    -2.5057660     0.3937656
H          -0.1214147    -3.0176526     0.8958042
C           1.6150992    -1.5763829     0.9660826
H           1.6590506    -1.2383963     1.9918233
C           2.4398760    -1.1706287    -0.0441926
O           2.1070463    -1.8332655    -1.2013075
C           1.0329571    -2.6223269    -0.9175856
H           0.6317143    -3.1821369    -1.7487820
18
454_C9H7NO_4-6-14-12 (120,) energy =    -477.1161231
C           6.0188840     1.0425357     0.1171227
H           6.9125268     1.6525350     0.2085548
C           6.0819701    -0.2786601    -0.3264518
H           7.0348974    -0.7343601    -0.5822011
C           4.9043576    -1.0139258    -0.4165619
H           4.9090177    -2.0487930    -0.7426034
C           3.6902537    -0.3891898    -0.0867074
N           3.6249048     0.8774268     0.3649054
C           4.7692286     1.5626104     0.4566527
H           4.6802185     2.5848653     0.8216097
C           0.6621530    -2.4456308     0.4069975
H          -0.1859717    -2.8918707     0.9075342
C           1.5230732    -1.4188582     0.9070957
H           1.4739639    -0.9248999     1.8669276
C           2.4360706    -1.1556375    -0.0770387
O           2.2170920    -1.9989753    -1.1405507
C           1.1283886    -2.7577034    -0.8340695
H           0.8082644    -3.4474920    -1.6002272
18
454_C9H7NO_4-6-14-12 (135,) energy =    -477.1195652
C           6.0085332     1.0412532     0.1341474
H           6.8956136     1.6595276     0.2326288
C           6.0712406    -0.2412971    -0.4114258
H           7.0185157    -0.6577265    -0.7437563
C           4.9032943    -0.9907450    -0.5075059
H           4.9090660    -1.9971795    -0.9120648
C           3.6959360    -0.4159554    -0.0757633
N           3.6308576     0.8138338     0.4709037
C           4.7665492     1.5107038     0.5654023
H           4.6779509     2.5011973     1.0096275
C           0.6157929    -2.3917388     0.3901645
H          -0.2802409    -2.7706873     0.8617960
C           1.4498772    -1.3239414     0.8450231
H           1.3313632    -0.7217147     1.7339781
C           2.4513413    -1.1866664    -0.0781152
O           2.3041639    -2.1384581    -1.0583993
C           1.1796195    -2.8472601    -0.7636633
H           0.9133799    -3.6179983    -1.4710194
18
454_C9H7NO_4-6-14-12 (150,) energy =    -477.1222656
C           6.0124385     1.0399315     0.1386711
H           6.8916277     1.6701691     0.2309696
C           6.0710246    -0.2058463    -0.4866152
H           7.0074520    -0.5799563    -0.8920461
C           4.9142396    -0.9733662    -0.5727891
H           4.9191482    -1.9517138    -1.0407069
C           3.7203098    -0.4544206    -0.0433907
N           3.6593273     0.7420544     0.5747826
C           4.7839171     1.4567323     0.6555359
H           4.6983034     2.4182226     1.1601075
C           0.5763766    -2.3384809     0.3617583
H          -0.3674943    -2.6508707     0.7865089
C           1.4005831    -1.2511457     0.7854339
H           1.2270976    -0.5621158     1.5987105
C           2.4841628    -1.2312091    -0.0518075
O           2.3872167    -2.2625256    -0.9535027
C           1.2210338    -2.9146445    -0.6919707
H           0.9941061    -3.7459737    -1.3420542
18
454_C9H7NO_4-6-14-12 (165,) energy =    -477.1239685
C           6.0104797     1.0457831     0.1417398
H           6.8809833     1.6894272     0.2227188
C           6.0588669    -0.1628080    -0.5534341
H           6.9782918    -0.4920683    -1.0303670
C           4.9138644    -0.9493453    -0.6234180
H           4.9114040    -1.8981557    -1.1484506
C           3.7423640    -0.4893869     0.0019568
N           3.6899281     0.6737834     0.6820351
C           4.8021082     1.4084196     0.7411812
H           4.7238474     2.3412325     1.2980929
C           0.5405020    -2.2899235     0.3205423
H          -0.4465021    -2.5414088     0.6830785
C           1.3574880    -1.1895318     0.7229290
H           1.1351289    -0.4259518     1.4531910
C           2.5133606    -1.2732398    -0.0072165
O           2.4608056    -2.3720268    -0.8285168
C           1.2565729    -2.9711720    -0.6183969
H           1.0637620    -3.8535559    -1.2095043
18
454_C9H7NO_4-6-14-12 (180,) energy =    -477.1245540
C           6.0989796     0.9153278    -0.1229502
H           7.0137322     1.4938940    -0.2068351
C           5.4530450     0.7472083     1.1021292
H           5.8541389     1.1951533     2.0074999
C           4.2835576    -0.0039328     1.1531194
H           3.7511145    -0.1589404     2.0849508
C           3.7944651    -0.5676590    -0.0376185
N           4.4134376    -0.4100398    -1.2253230
C           5.5333120     0.3142666    -1.2499731
H           6.0066584     0.4210375    -2.2251707
C           0.7685255    -2.6271113    -0.4805322
H           0.0127767    -3.2208167    -0.9757235
C           1.9111153    -2.0081386    -1.0731827
H           2.2165100    -2.0240752    -2.1085959
C           2.5762951    -1.3665975    -0.0620305
O           1.9086759    -1.5560047     1.1222406
C           0.8171788    -2.3215439     0.8472372
H           0.1866567    -2.5568555     1.6911715
