20
348_C9H10O_0-3-15-16 (-165,) energy =    -424.1553826
C           0.9280827    -0.7549879     0.0647265
H           0.7528225     0.2728314    -0.2820743
H           0.3695115    -0.9214815     0.9931588
C           2.4087803    -1.1976611     0.0425940
H           2.6042881    -1.9025996     0.8596441
C           1.9782255    -1.9726950    -1.2308842
H           2.2011691    -3.0456095    -1.2692967
O           0.5840529    -1.7179218    -0.9565626
H           2.3066811    -1.4977467    -2.1661306
C           5.7045896     1.5962198    -0.1939676
H           6.5395109     2.2890556    -0.2543882
C           4.4334126     2.0547134     0.1485756
H           4.2720236     3.1087459     0.3592756
C           3.3595811     1.1637774     0.2232656
H           2.3778278     1.5401471     0.4964934
C           3.5372349    -0.1991597    -0.0416491
C           4.8246988    -0.6489197    -0.3755589
H           4.9867552    -1.7063223    -0.5758197
C           5.8970236     0.2373183    -0.4558467
H           6.8842615    -0.1325575    -0.7203976
20
348_C9H10O_0-3-15-16 (-150,) energy =    -424.1556957
C           0.9339168    -0.6806652    -0.0602852
H           0.8273886     0.3121566    -0.5194788
H           0.2906976    -0.7404243     0.8256440
C           2.3987926    -1.1529247     0.0953235
H           2.5150634    -1.7464652     1.0107613
C           2.0525331    -2.0728428    -1.1026034
H           2.2254421    -3.1484647    -0.9773056
O           0.6517113    -1.7364724    -1.0051134
H           2.4883722    -1.7428164    -2.0560924
C           5.7026876     1.6231663    -0.1921216
H           6.5370744     2.3158943    -0.2605459
C           4.4679929     2.0549701     0.2928922
H           4.3362766     3.0875757     0.6055568
C           3.3955322     1.1647445     0.3765408
H           2.4397425     1.5145556     0.7589137
C           3.5373325    -0.1703323    -0.0222666
C           4.7853849    -0.5930392    -0.5027311
H           4.9178437    -1.6273599    -0.8132738
C           5.8583605     0.2935203    -0.5895402
H           6.8159198    -0.0537279    -0.9689342
20
348_C9H10O_0-3-15-16 (-135,) energy =    -424.1557281
C           0.9463269    -0.6657932    -0.2303125
H           0.9123016     0.2751984    -0.7971704
H           0.2258532    -0.6182308     0.5950933
C           2.3816881    -1.1426617     0.1065213
H           2.4049855    -1.6266478     1.0908738
C           2.1149276    -2.1845850    -1.0063320
H           2.2445141    -3.2416613    -0.7452631
O           0.7211091    -1.8131387    -1.0772073
H           2.6384820    -1.9774131    -1.9501643
C           5.6941054     1.6231465    -0.1881591
H           6.5262296     2.3185657    -0.2568743
C           4.5021000     2.0104917     0.4272575
H           4.4022498     3.0108354     0.8404823
C           3.4344986     1.1168417     0.5116063
H           2.5105700     1.4292701     0.9936799
C           3.5353569    -0.1781883    -0.0166821
C           4.7369072    -0.5547366    -0.6306061
H           4.8405588    -1.5545983    -1.0452249
C           5.8080116     0.3365556    -0.7157407
H           6.7309663     0.0245636    -1.1976233
20
348_C9H10O_0-3-15-16 (-120,) energy =    -424.1554383
C           0.9618313    -0.6649905    -0.4014248
H           1.0045359     0.1823530    -1.1001976
H           0.1854113    -0.4785298     0.3501342
C           2.3555592    -1.1194248     0.1073980
H           2.2770532    -1.4861526     1.1380529
C           2.1478986    -2.2817166    -0.8911493
H           2.2567825    -3.3015499    -0.5040766
O           0.7626824    -1.9198468    -1.0859428
H           2.7197462    -2.1866799    -1.8246757
C           5.6868084     1.6268946    -0.1793423
H           6.5182772     2.3233301    -0.2456557
C           4.5478506     1.9585210     0.5587268
H           4.4894107     2.9159632     1.0699272
C           3.4833658     1.0628602     0.6422193
H           2.6020195     1.3287469     1.2226630
C           3.5296210    -0.1787904    -0.0110819
C           4.6770386    -0.4985766    -0.7464032
H           4.7440470    -1.4558747    -1.2558505
C           5.7481974     0.3947189    -0.8288078
H           6.6300499     0.1246066    -1.4039621
20
348_C9H10O_0-3-15-16 (-105,) energy =    -424.1552649
C           0.9840827    -0.6730624    -0.5721777
H           1.1051685     0.0759316    -1.3674028
H           0.1588095    -0.3763565     0.0860205
C           2.3222091    -1.0838175     0.1012723
H           2.1456028    -1.3222938     1.1564038
C           2.1629344    -2.3558155    -0.7621824
H           2.2202103    -3.3192243    -0.2423055
O           0.8044547    -2.0019879    -1.1058105
H           2.8000775    -2.3934668    -1.6561019
C           5.6780021     1.6368596    -0.1703215
H           6.5121230     2.3304978    -0.2326778
C           4.6006933     1.9038355     0.6783791
H           4.5928941     2.8078497     1.2818122
C           3.5359689     1.0087581     0.7580352
H           2.7053333     1.2212939     1.4284142
C           3.5154713    -0.1662090    -0.0111982
C           4.6027388    -0.4224367    -0.8547827
H           4.6249714    -1.3268660    -1.4552780
C           5.6754908     0.4697812    -0.9324884
H           6.5105257     0.2476723    -1.5918741
20
348_C9H10O_0-3-15-16 (-90,) energy =    -424.1555657
C           1.0141290    -0.7004370    -0.7304362
H           1.2090515    -0.0450645    -1.5910662
H           0.1405031    -0.3303983    -0.1806906
C           2.2862007    -1.0333029     0.0983072
H           2.0170851    -1.1444706     1.1542181
C           2.1815788    -2.3989468    -0.6188428
H           2.1733136    -3.2891448     0.0211634
O           0.8669300    -2.0807930    -1.1272552
H           2.8981195    -2.5571113    -1.4357830
C           5.6834046     1.6379535    -0.1599059
H           6.5284737     2.3185730    -0.2182546
C           4.6762739     1.8432409     0.7855157
H           4.7338856     2.6856071     1.4699990
C           3.5988799     0.9621717     0.8606161
H           2.8244189     1.1235606     1.6078945
C           3.4938049    -0.1345437    -0.0096692
C           4.5136468    -0.3300962    -0.9500558
H           4.4703318    -1.1718764    -1.6345558
C           5.5981086     0.5469893    -1.0243196
H           6.3790395     0.3725914    -1.7599544
20
348_C9H10O_0-3-15-16 (-75,) energy =    -424.1563459
C           1.0516210    -0.7451430    -0.8752875
H           1.3088665    -0.1294888    -1.7482454
H           0.1158373    -0.3787571    -0.4356980
C           2.2362441    -0.9795201     0.1039108
H           1.8798940    -0.9728231     1.1388787
C           2.2045387    -2.4148259    -0.4741532
H           2.0796261    -3.2242314     0.2555438
O           0.9871715    -2.1495113    -1.2050534
H           3.0359018    -2.6702331    -1.1441748
C           5.6892094     1.6172566    -0.1550925
H           6.5508740     2.2766244    -0.2146731
C           4.7574874     1.7680617     0.8730420
H           4.8898312     2.5455414     1.6209741
C           3.6569710     0.9145781     0.9488724
H           2.9409244     1.0329775     1.7595248
C           3.4560709    -0.0982794    -0.0005425
C           4.4029537    -0.2401076    -1.0253170
H           4.2786471    -1.0144014    -1.7773519
C           5.5076559     0.6090852    -1.1029820
H           6.2290976     0.4795839    -1.9055880
20
348_C9H10O_0-3-15-16 (-60,) energy =    -424.1574850
C           1.1393192    -0.8152888    -0.9878543
H           1.3173087    -0.0277620    -1.7291351
H           0.0997197    -0.7599372    -0.6361700
C           2.1961129    -0.9386137     0.1458847
H           1.7754108    -0.8417232     1.1510306
C           2.3011781    -2.4006664    -0.3545394
H           1.8434212    -3.1395790     0.3178022
O           1.4648702    -2.1272512    -1.5005576
H           3.3002959    -2.7468221    -0.6435918
C           5.6841225     1.5932438    -0.2139649
H           6.5600148     2.2302418    -0.3028738
C           4.8437029     1.7042014     0.8939180
H           5.0625508     2.4283724     1.6743680
C           3.7213098     0.8814723     1.0068563
H           3.0739198     0.9692357     1.8768510
C           3.4160090    -0.0603549     0.0164897
C           4.2708932    -0.1639030    -1.0921018
H           4.0448504    -0.8818608    -1.8769952
C           5.3926333     0.6559163    -1.2079264
H           6.0411893     0.5618097    -2.0750931
20
348_C9H10O_0-3-15-16 (-45,) energy =    -424.1578866
C           1.1833051    -0.8951115    -1.0983464
H           1.4033256    -0.1730032    -1.8930281
H           0.1158848    -0.8419933    -0.8423039
C           2.1338220    -0.8767153     0.1285049
H           1.6349258    -0.6839211     1.0824321
C           2.3017183    -2.3834515    -0.2111220
H           1.7852029    -3.0632163     0.4809321
O           1.5822474    -2.2368728    -1.4556409
H           3.3289587    -2.7324020    -0.3669626
C           5.6877182     1.5630647    -0.2095834
H           6.5808749     2.1761184    -0.2952242
C           4.9163029     1.6021843     0.9517238
H           5.2055079     2.2472697     1.7773345
C           3.7685369     0.8135192     1.0572966
H           3.1708576     0.8505916     1.9656352
C           3.3736156    -0.0258433     0.0089347
C           4.1578459    -0.0562198    -1.1555295
H           3.8672404    -0.7051705    -1.9787954
C           5.3037476     0.7297368    -1.2635382
H           5.8985755     0.6924187    -2.1725057
20
348_C9H10O_0-3-15-16 (-30,) energy =    -424.1569578
C           1.2292211    -0.9902814    -1.1942855
H           1.4841257    -0.3602610    -2.0541100
H           0.1472635    -0.9264514    -1.0112792
C           2.0907310    -0.8100526     0.0807044
H           1.5278352    -0.5162853     0.9710500
C           2.2895504    -2.3485513    -0.0664104
H           1.7261868    -2.9489469     0.6618276
O           1.6629521    -2.3553911    -1.3673397
H           3.3268293    -2.6998794    -0.1063983
C           5.7063326     1.5507353    -0.1986697
H           6.6140670     2.1444640    -0.2645661
C           4.9895398     1.4919823     0.9968696
H           5.3349254     2.0419037     1.8685040
C           3.8211317     0.7324718     1.0753261
H           3.2630366     0.6992175     2.0087366
C           3.3511436     0.0135046    -0.0316108
C           4.0791530     0.0841458    -1.2292461
H           3.7430558    -0.4768014    -2.0975151
C           5.2468005     0.8423892    -1.3110504
H           5.7977392     0.8814035    -2.2472059
20
348_C9H10O_0-3-15-16 (-15,) energy =    -424.1557069
C           1.2360596    -1.1617174    -1.2633677
H           1.7328757    -1.0135675    -2.2311025
H           0.2283749    -0.7322028    -1.3165695
C           2.0768617    -0.7844414    -0.0200230
H           1.4351253    -0.3730418     0.7657529
C           2.1986616    -2.3271325     0.1414611
H           1.8973594    -2.7522076     1.1065689
O           1.2134849    -2.5555827    -0.8874902
H           3.1849525    -2.7224385    -0.1390680
C           5.7332967     1.5303320    -0.1531424
H           6.6536241     2.1077444    -0.1717468
C           5.0608624     1.3158602     1.0516592
H           5.4541292     1.7272409     1.9776865
C           3.8766451     0.5808061     1.0685982
H           3.3531921     0.4281844     2.0103700
C           3.3420397     0.0341179    -0.1088346
C           4.0255097     0.2619314    -1.3106663
H           3.6393511    -0.1391258    -2.2429599
C           5.2092361     1.0025826    -1.3330242
H           5.7199337     1.1682903    -2.2781015
20
348_C9H10O_0-3-15-16 (0,) energy =    -424.1552832
C           1.3198942    -1.2801051    -1.3370455
H           1.9230983    -1.2919551    -2.2548306
H           0.3421201    -0.8369379    -1.5589229
C           2.0532534    -0.7631703    -0.0782893
H           1.3421231    -0.2664754     0.5914217
C           2.1345741    -2.2737067     0.2762511
H           1.7718400    -2.5802702     1.2645474
O           1.2026462    -2.6061329    -0.7743966
H           3.1268416    -2.7119070     0.0985267
C           5.7262386     1.5264597    -0.1532042
H           6.6510139     2.0970142    -0.1571018
C           5.1136669     1.1858925     1.0553667
H           5.5595710     1.4917123     1.9982846
C           3.9250422     0.4589424     1.0550586
H           3.4504233     0.2062938     2.0013100
C           3.3253739     0.0465801    -0.1461758
C           3.9486215     0.3981119    -1.3494733
H           3.5065880     0.1053683    -2.2969877
C           5.1372821     1.1328089    -1.3537879
H           5.6005762     1.3973156    -2.3008077
20
348_C9H10O_0-3-15-16 (15,) energy =    -424.1553708
C           1.4241700    -1.3750079    -1.3786131
H           2.1201766    -1.4777596    -2.2226946
H           0.4770208    -0.9594616    -1.7417241
C           2.0388334    -0.7342104    -0.1135813
H           1.2753469    -0.1619156     0.4271548
C           2.0630642    -2.1968882     0.4040560
H           1.5949663    -2.3979262     1.3749979
O           1.2392044    -2.6359625    -0.6970264
H           3.0619446    -2.6548516     0.3779475
C           5.7264969     1.5291678    -0.1660790
H           6.6537328     2.0957124    -0.1678001
C           5.1850053     1.0697684     1.0372256
H           5.6892736     1.2775514     1.9774531
C           3.9949892     0.3448615     1.0358323
H           3.5792950    -0.0040621     1.9791532
C           3.3225978     0.0575782    -0.1629055
C           3.8757516     0.5247928    -1.3607746
H           3.3744492     0.3260144    -2.3037942
C           5.0662462     1.2564440    -1.3632051
H           5.4761323     1.6114589    -2.3052105
20
348_C9H10O_0-3-15-16 (30,) energy =    -424.1556707
C           1.5376607    -1.4618370    -1.4139173
H           2.3137433    -1.6254590    -2.1747152
H           0.6261477    -1.0943496    -1.8998449
C           2.0285635    -0.6998800    -0.1607116
H           1.2284150    -0.0626512     0.2363028
C           1.9774153    -2.0995215     0.5026929
H           1.3890021    -2.2000819     1.4225639
O           1.2932395    -2.6572686    -0.6399880
H           2.9664079    -2.5554819     0.6514488
C           5.7315157     1.5344406    -0.1822324
H           6.6604004     2.0982657    -0.1814386
C           5.2572651     0.9593282     0.9987988
H           5.8163341     1.0734403     1.9239301
C           4.0659384     0.2347030     0.9951854
H           3.7053001    -0.2088990     1.9209563
C           3.3264939     0.0682496    -0.1851248
C           3.8131687     0.6499291    -1.3624589
H           3.2569574     0.5374680    -2.2897507
C           5.0046240     1.3782277    -1.3624953
H           5.3647404     1.8210535    -2.2875029
20
348_C9H10O_0-3-15-16 (45,) energy =    -424.1557427
C           1.6500411    -1.5713321    -1.4196366
H           2.4994339    -1.8029409    -2.0776105
H           0.7939841    -1.2580037    -2.0291671
C           2.0218897    -0.6828675    -0.2062356
H           1.1982217     0.0002472     0.0361058
C           1.8835760    -2.0038103     0.5884131
H           1.1980028    -2.0060165     1.4441725
O           1.3203733    -2.6807991    -0.5562953
H           2.8429117    -2.4467414     0.8909135
C           5.7346901     1.5350248    -0.1949246
H           6.6644517     2.0974088    -0.1921914
C           5.3277149     0.8448400     0.9474807
H           5.9393203     0.8675851     1.8457289
C           4.1350821     0.1195613     0.9412787
H           3.8292579    -0.4121803     1.8392199
C           3.3290474     0.0702675    -0.2036004
C           3.7473461     0.7715641    -1.3433479
H           3.1347520     0.7499058    -2.2421111
C           4.9389679     1.4967687    -1.3415533
H           5.2468220     2.0304508    -2.2370076
20
348_C9H10O_0-3-15-16 (60,) energy =    -424.1554590
C           1.6482199    -1.7432120     0.5125671
H           1.6318352    -0.9899311     1.3128442
H           1.7741140    -2.7393563     0.9534678
C           2.5715649    -1.3655406    -0.6760453
H           3.0241597    -2.2683828    -1.1036893
C           1.2357346    -1.0454771    -1.3861573
H           1.0560394    -1.5243822    -2.3557901
O           0.4760508    -1.6664255    -0.3256672
H           1.0084774     0.0267296    -1.4654266
C           5.6634926     1.6042644    -0.0916459
H           6.4457148     2.3430191     0.0604663
C           4.6854745     1.8051321    -1.0647836
H           4.7027669     2.7023336    -1.6780850
C           3.6780716     0.8563230    -1.2572000
H           2.9274311     1.0276881    -2.0238699
C           3.6306502    -0.3081841    -0.4818145
C           4.6272758    -0.5026400     0.4874497
H           4.6141129    -1.4057838     1.0944927
C           5.6312811     0.4434987     0.6851919
H           6.3900800     0.2745856     1.4448842
20
348_C9H10O_0-3-15-16 (75,) energy =    -424.1552652
C           1.5491241    -1.5872827     0.5354657
H           1.4643775    -0.7227197     1.2087340
H           1.6359162    -2.5050436     1.1292437
C           2.5748872    -1.3810283    -0.6128009
H           3.0459052    -2.3383943    -0.8634539
C           1.3067606    -1.1735868    -1.4718463
H           1.2154891    -1.7862324    -2.3763521
O           0.4556694    -1.6480980    -0.4045895
H           1.0806100    -0.1287543    -1.7238412
C           5.6697860     1.5982752    -0.0815657
H           6.4511046     2.3390774     0.0651236
C           4.6048234     1.8592617    -0.9422621
H           4.5525348     2.8063708    -1.4729933
C           3.5989255     0.9074886    -1.1298737
H           2.7811640     1.1317996    -1.8081005
C           3.6414198    -0.3231314    -0.4641765
C           4.7253160    -0.5759438     0.3925351
H           4.7825746    -1.5310748     0.9111607
C           5.7267672     0.3728851     0.5872735
H           6.5544563     0.1547638     1.2571993
20
348_C9H10O_0-3-15-16 (90,) energy =    -424.1556445
C           1.4509779    -1.4359805     0.5165288
H           1.3311938    -0.4933179     1.0689179
H           1.4658853    -2.2736556     1.2240803
C           2.5776257    -1.3917993    -0.5529819
H           3.0489282    -2.3773797    -0.6318334
C           1.3940156    -1.2909481    -1.5425757
H           1.3708006    -2.0280121    -2.3539909
O           0.4397925    -1.5966855    -0.5012053
H           1.2186478    -0.2932509    -1.9664719
C           5.6750153     1.5937812    -0.0784455
H           6.4544840     2.3385015     0.0578366
C           4.5282701     1.9018416    -0.8100613
H           4.4097006     2.8899090    -1.2472303
C           3.5255827     0.9458464    -0.9864957
H           2.6405016     1.2108036    -1.5571752
C           3.6533937    -0.3392765    -0.4431393
C           4.8138212    -0.6341817     0.2899281
H           4.9339138    -1.6280685     0.7165615
C           5.8142361     0.3188042     0.4739304
H           6.7041074     0.0644797     1.0439202
20
348_C9H10O_0-3-15-16 (105,) energy =    -424.1564939
C           1.3691922    -1.3222524     0.4887246
H           1.2742698    -0.3493079     0.9897286
H           1.2661330    -2.1240083     1.2304131
C           2.5845383    -1.4244134    -0.4756317
H           3.0483362    -2.4135431    -0.4077779
C           1.4957914    -1.3986410    -1.5756931
H           1.4835902    -2.2588620    -2.2564447
O           0.4320578    -1.4630558    -0.6008536
H           1.4509222    -0.4777613    -2.1717033
C           5.6669189     1.5885740    -0.1000670
H           6.4410399     2.3432457     0.0093945
C           4.4464265     1.9147658    -0.6936823
H           4.2649813     2.9266027    -1.0468070
C           3.4520411     0.9464055    -0.8360933
H           2.5052372     1.2246602    -1.2911599
C           3.6598003    -0.3696674    -0.3972970
C           4.8884683    -0.6797277     0.2036091
H           5.0679246    -1.6940619     0.5540644
C           5.8841791     0.2860285     0.3513243
H           6.8297838     0.0194997     0.8162735
20
348_C9H10O_0-3-15-16 (120,) energy =    -424.1575763
C           1.3022887    -1.1468209     0.3685829
H           1.3194073    -0.2663428     1.0211055
H           0.9330005    -2.0145125     0.9327373
C           2.5962877    -1.4166047    -0.4495772
H           3.0329515    -2.4033919    -0.2700209
C           1.6287317    -1.3656612    -1.6587853
H           1.4244958    -2.3444422    -2.1144972
O           0.5308995    -0.9185901    -0.8324044
H           1.8735737    -0.6445468    -2.4473211
C           5.6544582     1.6234060    -0.1252465
H           6.4215024     2.3879720    -0.0360993
C           4.3855898     1.9530168    -0.6080641
H           4.1605761     2.9775131    -0.8930430
C           3.4019509     0.9719714    -0.7242396
H           2.4122786     1.2413348    -1.0859848
C           3.6686603    -0.3589964    -0.3659377
C           4.9412884    -0.6737860     0.1262350
H           5.1633311    -1.6990500     0.4147302
C           5.9286198     0.3064550     0.2439700
H           6.9113618     0.0391470     0.6236997
20
348_C9H10O_0-3-15-16 (135,) energy =    -424.1578913
C           1.1927564    -1.0071577     0.4946123
H           1.1978866    -0.0830797     1.0840404
H           0.7559944    -1.8190887     1.0927801
C           2.5251813    -1.3801950    -0.2089021
H           2.9296329    -2.3544753     0.0796445
C           1.6319382    -1.4106195    -1.4795613
H           1.4109193    -2.4205826    -1.8523495
O           0.5092519    -0.8443805    -0.7677261
H           1.9547196    -0.7763387    -2.3130663
C           5.6556960     1.6020365    -0.1632105
H           6.4425354     2.3514720    -0.1537414
C           4.3419532     1.9664666    -0.4696809
H           4.1030934     3.0013980    -0.7006322
C           3.3322045     1.0058733    -0.4816233
H           2.3125380     1.2962424    -0.7250803
C           3.6149869    -0.3375149    -0.1860855
C           4.9355027    -0.6898124     0.1167892
H           5.1723681    -1.7264871     0.3467170
C           5.9495144     0.2703906     0.1295946
H           6.9680662    -0.0242642     0.3686688
20
348_C9H10O_0-3-15-16 (150,) energy =    -424.1571568
C           1.1123099    -0.9449794     0.4161086
H           1.0526995     0.0154801     0.9408741
H           0.6225379    -1.7183110     1.0245039
C           2.5061811    -1.3570711    -0.1209465
H           2.8839346    -2.3037230     0.2755170
C           1.7382709    -1.4917403    -1.4689164
H           1.5520537    -2.5291468    -1.7808446
O           0.5547639    -0.8778466    -0.9135806
H           2.1412911    -0.9217420    -2.3136164
C           5.6633027     1.5987846    -0.1958537
H           6.4594218     2.3378155    -0.2254341
C           4.3329011     1.9913582    -0.3593497
H           4.0899798     3.0382663    -0.5219100
C           3.3102802     1.0442040    -0.3191287
H           2.2807951     1.3589336    -0.4709238
C           3.5964333    -0.3132476    -0.1056742
C           4.9361431    -0.6950935     0.0418783
H           5.1771996    -1.7444376     0.1986979
C           5.9622858     0.2504900     0.0017324
H           6.9941899    -0.0676925     0.1257643
20
348_C9H10O_0-3-15-16 (165,) energy =    -424.1558176
C           1.0081494    -0.9037469     0.3531982
H           0.7825253     0.1695257     0.4001837
H           0.6123108    -1.3847477     1.2559991
C           2.4655261    -1.2628664    -0.0257514
H           2.7999421    -2.1507974     0.5201912
C           1.8218620    -1.6709257    -1.3825317
H           2.0056754    -2.6951516    -1.7295111
O           0.4902641    -1.5046614    -0.8528641
H           2.0300605    -0.9666049    -2.1997485
C           5.7172632     1.5887700    -0.2072112
H           6.5415873     2.2942467    -0.2668178
C           4.4001297     2.0467788    -0.1718799
H           4.1931653     3.1133234    -0.2048426
C           3.3398459     1.1415632    -0.0946367
H           2.3234435     1.5235854    -0.0752152
C           3.5746797    -0.2391322    -0.0415898
C           4.9053654    -0.6842512    -0.0802362
H           5.1094370    -1.7523478    -0.0388848
C           5.9668220     0.2158081    -0.1628380
H           6.9882640    -0.1549133    -0.1881263
20
348_C9H10O_0-3-15-16 (180,) energy =    -424.1552939
C           0.9544192    -0.8213736     0.1951242
H           0.7267560     0.2366575     0.0081150
H           0.4819833    -1.1259778     1.1363064
C           2.4350751    -1.2190698    -0.0034670
H           2.7016837    -2.0286660     0.6851609
C           1.9091201    -1.8195447    -1.3368853
H           2.1500204    -2.8685009    -1.5467297
O           0.5397560    -1.6477185    -0.9153516
H           2.1477406    -1.2061473    -2.2171762
C           5.7224450     1.5903351    -0.2000963
H           6.5563932     2.2845254    -0.2583645
C           4.4252399     2.0630593    -0.0075182
H           4.2426605     3.1303636     0.0871211
C           3.3520543     1.1711624     0.0662388
H           2.3511954     1.5631479     0.2196047
C           3.5562471    -0.2092659    -0.0461405
C           4.8696765    -0.6711801    -0.2312688
H           5.0505694    -1.7414544    -0.3104303
C           5.9417212     0.2151058    -0.3120363
H           6.9488509    -0.1671480    -0.4570777
