22
196_C9H10O2S_6-11-12-18 (-165,) energy =    -897.5193692
C           0.9713175     0.4880223    -0.6184875
H           1.7480935     0.7883858    -1.3138825
C          -0.0533055     1.3620393    -0.2551379
H          -0.0711286     2.3695524    -0.6608818
C          -1.0576166     0.9392876     0.6193944
H          -1.8547090     1.6231584     0.8979559
C           0.9737186    -0.8057947    -0.0932979
C          -1.0486056    -0.3614214     1.1290228
H          -1.8386310    -0.6916282     1.7975363
C          -0.0299403    -1.2454145     0.7721270
H          -0.0166526    -2.2672880     1.1366877
S           2.2991839    -1.9384633    -0.5443752
C           3.5636416    -1.6375176     0.6943951
H           3.1663772    -1.7322434     1.7010895
C           4.6971915    -0.6868478     0.4183228
H           5.0556930    -0.0927627     1.2540883
H           4.6970768    -0.1851270    -0.5444764
O           1.7911141    -3.3056731    -0.3432965
C           4.9442402    -2.1726799     0.4069713
O           2.8503083    -1.5189764    -1.8459490
H           5.4720110    -2.6352263     1.2353155
H           5.1090401    -2.6380132    -0.5601686
22
196_C9H10O2S_6-11-12-18 (-150,) energy =    -897.5199548
C           1.0253857     0.3590636    -0.7507203
H           1.7835682     0.6061563    -1.4861574
C           0.0307397     1.2725585    -0.4005457
H           0.0188847     2.2581438    -0.8572536
C          -0.9520490     0.9174301     0.5265679
H          -1.7255960     1.6317196     0.7949851
C           1.0202171    -0.9059968    -0.1599723
C          -0.9523019    -0.3557707     1.1017139
H          -1.7266573    -0.6339435     1.8109793
C           0.0355959    -1.2786541     0.7576043
H           0.0363683    -2.2812628     1.1728501
S           2.3051739    -2.0912991    -0.5950594
C           3.5707271    -1.8456377     0.6530326
H           3.2263190    -2.1459177     1.6382823
C           4.5495530    -0.7074366     0.5145783
H           4.8539466    -0.2088997     1.4303393
H           4.4436080    -0.0595842    -0.3502074
O           1.7480331    -3.4408622    -0.4086167
C           5.0012594    -2.1175197     0.2555093
O           2.8824097    -1.6745797    -1.8866596
H           5.6228596    -2.6236299     0.9879194
H           5.1825210    -2.3960290    -0.7778048
22
196_C9H10O2S_6-11-12-18 (-135,) energy =    -897.5192057
C           1.0392338     0.2799081    -0.8277964
H           1.7702834     0.4651706    -1.6075125
C           0.0833648     1.2374236    -0.4860446
H           0.0757878     2.1969997    -0.9952723
C          -0.8658789     0.9596723     0.5002088
H          -1.6087617     1.7082222     0.7617413
C           1.0295026    -0.9505949    -0.1686626
C          -0.8724302    -0.2806761     1.1433937
H          -1.6217224    -0.4997182     1.8988046
C           0.0761810    -1.2467626     0.8081580
H           0.0678904    -2.2253298     1.2774884
S           2.2615129    -2.1952393    -0.5957927
C           3.5449820    -2.0044789     0.6489484
H           3.2753021    -2.4932253     1.5800557
C           4.3559592    -0.7309185     0.6786938
H           4.6232705    -0.3426071     1.6572131
H           4.1278151     0.0275463    -0.0645023
O           1.6540460    -3.5216814    -0.4037651
C           4.9837009    -2.0020837     0.1894401
O           2.8441843    -1.7958524    -1.8906162
H           5.6964014    -2.5231624     0.8218773
H           5.1541440    -2.0948181    -0.8782799
22
196_C9H10O2S_6-11-12-18 (-120,) energy =    -897.5174259
C           1.0632420     0.2253353    -0.8859935
H           1.7715984     0.3619302    -1.6961944
C           0.1382425     1.2164853    -0.5540654
H           0.1329535     2.1540738    -1.1027475
C          -0.7834439     0.9998685     0.4726128
H          -1.5027047     1.7738340     0.7260526
C           1.0515420    -0.9760088    -0.1754215
C          -0.7929501    -0.2124763     1.1672501
H          -1.5214606    -0.3840333     1.9545973
C           0.1252364    -1.2110621     0.8430239
H           0.1135752    -2.1684562     1.3541340
S           2.2375556    -2.2683030    -0.5969137
C           3.5646954    -2.1068359     0.6167128
H           3.4068843    -2.7747297     1.4574751
C           4.1994441    -0.7534608     0.8454801
H           4.4637375    -0.5041705     1.8692031
H           3.8275764     0.0840542     0.2618915
O           1.5998908    -3.5726325    -0.3568212
C           4.9632332    -1.8202433     0.1236831
O           2.7879322    -1.9107801    -1.9176198
H           5.7745386    -2.3327084     0.6325956
H           5.0818197    -1.7166132    -0.9501482
22
196_C9H10O2S_6-11-12-18 (-105,) energy =    -897.5153650
C           1.0930838     0.1567117    -0.9500640
H           1.7826811     0.2471724    -1.7826576
C           0.1951430     1.1783327    -0.6355613
H           0.1934408     2.0929644    -1.2217153
C          -0.7038368     1.0209950     0.4215571
H          -1.4024454     1.8179006     0.6612658
C           1.0777246    -1.0148667    -0.1915692
C          -0.7172108    -0.1619763     1.1652452
H          -1.4279854    -0.2881600     1.9770402
C           0.1746232    -1.1896457     0.8591891
H           0.1606999    -2.1246452     1.4099273
S           2.2217606    -2.3504113    -0.5982335
C           3.6046696    -2.1956624     0.5637226
H           3.5872962    -3.0179580     1.2717200
C           4.0803161    -0.8325973     1.0184818
H           4.3811908    -0.7421604     2.0584804
H           3.5665383     0.0401529     0.6254996
O           1.5636547    -3.6263937    -0.2737880
C           4.9184870    -1.6385242     0.0745069
O           2.7202091    -2.0656276    -1.9562602
H           5.8215148    -2.1195497     0.4395286
H           4.9512236    -1.3344126    -0.9671272
22
196_C9H10O2S_6-11-12-18 (-90,) energy =    -897.5139284
C           1.1059010     0.1012572    -1.0094033
H           1.7703975     0.1402816    -1.8661236
C           0.2403555     1.1552458    -0.7107275
H           0.2386898     2.0438829    -1.3355407
C          -0.6265184     1.0622400     0.3800977
H          -1.3003490     1.8838694     0.6069817
C           1.0903337    -1.0357484    -0.2001482
C          -0.6395312    -0.0873308     1.1751527
H          -1.3255728    -0.1623393     2.0140698
C           0.2203524    -1.1465407     0.8869821
H           0.2079717    -2.0562217     1.4785934
S           2.1896030    -2.4130137    -0.5892188
C           3.6295128    -2.2409553     0.5038269
H           3.7718654    -3.1763469     1.0364993
C           3.9739366    -0.9402822     1.1929326
H           4.3439365    -1.0108053     2.2120423
H           3.3373158    -0.0805460     1.0066240
O           1.5210900    -3.6546697    -0.1650374
C           4.8255343    -1.4406615     0.0620622
O           2.6274788    -2.2183965    -1.9824470
H           5.8056070    -1.8579625     0.2748216
H           4.7485600    -0.9376474    -0.8972994
22
196_C9H10O2S_6-11-12-18 (-75,) energy =    -897.5136397
C           1.1274394     0.0427413    -1.0513325
H           1.7718616     0.0329021    -1.9241801
C           0.2920149     1.1270431    -0.7768128
H           0.2961707     1.9906964    -1.4356660
C          -0.5536321     1.0954094     0.3339975
H          -1.2044278     1.9402267     0.5421824
C           1.1040283    -1.0618969    -0.1981518
C          -0.5758938    -0.0224034     1.1731262
H          -1.2461274    -0.0493307     2.0275835
C           0.2542804    -1.1113448     0.9096323
H           0.2361136    -1.9974240     1.5357536
S           2.1634526    -2.4764440    -0.5585412
C           3.6562593    -2.2623661     0.4467117
H           3.9617459    -3.2470216     0.7900989
C           3.9066403    -1.0723091     1.3402705
H           4.3739618    -1.2739336     2.3001290
H           3.1661661    -0.2787422     1.3595274
O           1.4982442    -3.6773552    -0.0244468
C           4.7064478    -1.2532422     0.0771972
O           2.5375303    -2.3843023    -1.9796826
H           5.7437567    -1.5688936     0.1403957
H           4.4906613    -0.5924537    -0.7575771
22
196_C9H10O2S_6-11-12-18 (-60,) energy =    -897.5142269
C           1.1418333    -0.0044029    -1.0914745
H           1.7654176    -0.0622065    -1.9776177
C           0.3347905     1.1069959    -0.8427632
H           0.3422465     1.9446674    -1.5342882
C          -0.4886661     1.1351727     0.2848066
H          -1.1177684     2.0008504     0.4729352
C           1.1138725    -1.0753165    -0.1957337
C          -0.5178097     0.0504870     1.1660163
H          -1.1717819     0.0698745     2.0331708
C           0.2840281    -1.0656034     0.9283062
H           0.2593270    -1.9282767     1.5860784
S           2.1326218    -2.5254319    -0.5271555
C           3.6705672    -2.2721460     0.3859190
H           4.1190355    -3.2519642     0.5312181
C           3.8656735    -1.2298504     1.4561975
H           4.4357965    -1.5304047     2.3306848
H           3.0503750    -0.5442150     1.6651378
O           1.4726276    -3.6838944     0.0991757
C           4.5665112    -1.0955592     0.1264294
O           2.4487764    -2.5244370    -1.9648113
H           5.6335367    -1.2864096     0.0599086
H           4.2076315    -0.3257641    -0.5511380
22
196_C9H10O2S_6-11-12-18 (-45,) energy =    -897.5148740
C           1.1550659    -0.0558868    -1.1381464
H           1.7601348    -0.1512666    -2.0338950
C           0.3629628     1.0709415    -0.9136866
H           0.3634694     1.8831640    -1.6349704
C          -0.4376794     1.1473095     0.2284190
H          -1.0552803     2.0251003     0.3976114
C           1.1368998    -1.0936396    -0.2031955
C          -0.4592336     0.0952313     1.1478723
H          -1.0967322     0.1516428     2.0255858
C           0.3283478    -1.0364661     0.9348235
H           0.3062557    -1.8769959     1.6208150
S           2.1333660    -2.5657540    -0.5039224
C           3.7140778    -2.2623769     0.3081025
H           4.2807435    -3.1892363     0.2559593
C           3.8800239    -1.3904426     1.5229374
H           4.5468880    -1.7533813     2.2996633
H           3.0144367    -0.8481141     1.8913292
O           1.4990974    -3.6872649     0.2094638
C           4.4533295    -0.9594169     0.1940559
O           2.3867923    -2.6437449    -1.9521636
H           5.5257861    -1.0108428     0.0308502
H           3.9619581    -0.1345037    -0.3139291
22
196_C9H10O2S_6-11-12-18 (-30,) energy =    -897.5149031
C           1.1394553    -0.0838380    -1.1854730
H           1.7259726    -0.2170785    -2.0887136
C           0.3584763     1.0549024    -0.9861045
H           0.3465082     1.8376113    -1.7391999
C          -0.4145977     1.1813627     0.1711403
H          -1.0234728     2.0688563     0.3201595
C           1.1381018    -1.0837105    -0.2097179
C          -0.4198144     0.1668088     1.1313950
H          -1.0356432     0.2600935     2.0213536
C           0.3568689    -0.9772242     0.9434824
H           0.3436101    -1.7920872     1.6599953
S           2.1164464    -2.5748563    -0.4746831
C           3.7369800    -2.2321757     0.2375227
H           4.3798610    -3.0733081    -0.0112781
C           3.9128508    -1.5550266     1.5680618
H           4.6660247    -1.9645682     2.2348058
H           3.0287702    -1.1740408     2.0710960
O           1.5051087    -3.6548342     0.3177137
C           4.3437214    -0.8564432     0.3020693
O           2.3133395    -2.7268840    -1.9262295
H           5.4021321    -0.7755692     0.0718061
H           3.7463540    -0.0130341    -0.0309656
22
196_C9H10O2S_6-11-12-18 (-15,) energy =    -897.5143112
C           1.1192126    -0.1099479    -1.2267915
H           1.6938657    -0.2748209    -2.1323687
C           0.3439453     1.0371834    -1.0586945
H           0.3217424     1.7924147    -1.8391689
C          -0.4113653     1.2084766     0.1049042
H          -1.0160591     2.1026210     0.2290416
C           1.1302663    -1.0735162    -0.2150039
C          -0.4032076     0.2310339     1.1023303
H          -1.0048509     0.3597996     1.9975390
C           0.3686988    -0.9213419     0.9456001
H           0.3651316    -1.7086767     1.6922883
S           2.1044725    -2.5743884    -0.4372380
C           3.7613313    -2.1874110     0.1694151
H           4.4435830    -2.9113987    -0.2690616
C           3.9943482    -1.7223526     1.5797191
H           4.8295721    -2.1617472     2.1171464
H           3.1232168    -1.5209366     2.1969214
O           1.5286365    -3.6081547     0.4383895
C           4.2599906    -0.7881095     0.4281550
O           2.2408099    -2.8043181    -1.8858587
H           5.2862023    -0.5765680     0.1411510
H           3.5738217     0.0404781     0.2832166
22
196_C9H10O2S_6-11-12-18 (0,) energy =    -897.5136858
C           1.0870297    -0.1026009    -1.2780710
H           1.6511222    -0.2938361    -2.1850916
C           0.3105006     1.0471007    -1.1375075
H           0.2760431     1.7759237    -1.9422817
C          -0.4295848     1.2553995     0.0300176
H          -1.0351781     2.1515749     0.1334632
C           1.1136861    -1.0328688    -0.2361610
C          -0.4039900     0.3119128     1.0591337
H          -0.9921645     0.4688922     1.9588228
C           0.3692807    -0.8431517     0.9294792
H           0.3812249    -1.6034232     1.7034626
S           2.0953772    -2.5346698    -0.4209648
C           3.7790167    -2.1071000     0.0926625
H           4.4656232    -2.6710853    -0.5328031
C           4.1158493    -1.8814377     1.5401969
H           5.0326781    -2.3286373     1.9131829
H           3.2942290    -1.8909432     2.2508581
O           1.5541187    -3.5242289     0.5254134
C           4.1901455    -0.7345279     0.5688101
O           2.1845947    -2.8317635    -1.8611097
H           5.1619002    -0.3765620     0.2402481
H           3.4282140     0.0356688     0.6367350
22
196_C9H10O2S_6-11-12-18 (15,) energy =    -897.5137709
C           1.0526463    -0.1477241    -1.3215579
H           1.6073245    -0.3770476    -2.2256097
C           0.2742121     1.0052269    -1.2253022
H           0.2297996     1.6970499    -2.0616450
C          -0.4550286     1.2639212    -0.0611986
H          -1.0622414     2.1622801     0.0082308
C           1.0921474    -1.0304827    -0.2398640
C          -0.4157556     0.3676862     1.0089250
H          -0.9945378     0.5636995     1.9070858
C           0.3596718    -0.7901705     0.9236991
H           0.3846495    -1.5132302     1.7321485
S           2.0808910    -2.5344611    -0.3682613
C           3.7815707    -2.0651226     0.0585004
H           4.4404798    -2.4432016    -0.7176380
C           4.2438609    -2.0650629     1.4892117
H           5.2259204    -2.4823377     1.6924842
H           3.4966352    -2.2854604     2.2459049
O           1.5744726    -3.4613831     0.6585338
C           4.1307855    -0.7642616     0.7421113
O           2.1255008    -2.9195791    -1.7890852
H           5.0329127    -0.2621368     0.4039374
H           3.3193930    -0.0946458     1.0109954
22
196_C9H10O2S_6-11-12-18 (30,) energy =    -897.5148663
C           1.0156514    -0.1694619    -1.3535240
H           1.5554924    -0.4383162    -2.2557454
C           0.2347354     0.9848833    -1.3003755
H           0.1743160     1.6367973    -2.1672516
C          -0.4772492     1.2957908    -0.1387420
H          -1.0867137     2.1945799    -0.1024695
C           1.0760844    -0.9996944    -0.2321698
C          -0.4182503     0.4507292     0.9715244
H          -0.9844578     0.6874024     1.8679132
C           0.3606305    -0.7070486     0.9300456
H           0.4013259    -1.3910016     1.7711985
S           2.0757356    -2.5006316    -0.3027776
C           3.7783184    -1.9855270     0.0546832
H           4.3880642    -2.1527794    -0.8279396
C           4.3673624    -2.2052709     1.4213207
H           5.3932171    -2.5596915     1.4641116
H           3.7057365    -2.6296370     2.1703400
O           1.6060031    -3.3635635     0.7961409
C           4.0877495    -0.8060707     0.9444201
O           2.0875462    -2.9729778    -1.6969179
H           4.9139603    -0.1685330     0.6425508
H           3.2536114    -0.2747453     1.3936624
22
196_C9H10O2S_6-11-12-18 (45,) energy =    -897.5167151
C           0.8858358     0.7772548    -0.2975256
H           1.5258920     1.4889321    -0.8091488
C          -0.2525636     1.1982560     0.3895339
H          -0.4976564     2.2557567     0.4306867
C          -1.0812493     0.2611458     1.0121528
H          -1.9688879     0.5932460     1.5435518
C           1.1827256    -0.5865054    -0.3457077
C          -0.7804876    -1.1010207     0.9442269
H          -1.4349448    -1.8283235     1.4163038
C           0.3568173    -1.5342999     0.2607997
H           0.5967834    -2.5887073     0.1736408
S           2.6519565    -1.1330609    -1.2383033
C           4.0251098    -0.9094352    -0.0836831
H           4.5546587     0.0103397    -0.3124558
C           4.7913275    -2.1084073     0.4078908
H           5.8698552    -2.0049269     0.4831588
H           4.4421816    -3.0768977     0.0636877
O           2.4810532    -2.5791898    -1.4704364
C           3.9057648    -1.3453548     1.3552797
O           2.8878533    -0.1982073    -2.3500685
H           4.3524763    -0.6959559     2.1026307
H           2.9783311    -1.8173892     1.6674107
22
196_C9H10O2S_6-11-12-18 (60,) energy =    -897.5186304
C           0.8537679     0.7888470    -0.3529068
H           1.4925759     1.4737327    -0.9013730
C          -0.2875420     1.2436398     0.3074923
H          -0.5352822     2.3011941     0.2910285
C          -1.1156942     0.3393250     0.9772293
H          -2.0056620     0.6973069     1.4875243
C           1.1548194    -0.5747052    -0.3260879
C          -0.8115918    -1.0238946     0.9833547
H          -1.4659915    -1.7264361     1.4916365
C           0.3289643    -1.4903179     0.3282908
H           0.5711796    -2.5473107     0.2989192
S           2.6333036    -1.1623885    -1.1743001
C           3.9717427    -0.8870680    -0.0019621
H           4.3518288     0.1270756    -0.0806417
C           4.9213611    -2.0168310     0.3016693
H           5.9707107    -1.7569929     0.4049320
H           4.7214560    -2.9645471    -0.1878567
O           2.4789847    -2.6205395    -1.3346579
C           3.9396995    -1.5595120     1.3466056
O           2.8784117    -0.2835881    -2.3286639
H           4.2905274    -0.9782971     2.1943315
H           3.1029871    -2.2174708     1.5632190
22
196_C9H10O2S_6-11-12-18 (75,) energy =    -897.5198207
C           0.8164470     0.7890025    -0.4051322
H           1.4578401     1.4369541    -0.9938278
C          -0.3302516     1.2829927     0.2169195
H          -0.5802628     2.3364911     0.1292172
C          -1.1604426     0.4226172     0.9397531
H          -2.0546308     0.8106734     1.4198256
C           1.1200193    -0.5690571    -0.2864552
C          -0.8529849    -0.9364484     1.0383868
H          -1.5090189    -1.6053742     1.5881871
C           0.2927141    -1.4416898     0.4229075
H           0.5372978    -2.4976140     0.4664689
S           2.6079343    -1.2060279    -1.0782727
C           3.9089955    -0.9122897     0.1234324
H           4.1513512     0.1438236     0.1968433
C           5.0133514    -1.9338972     0.2337165
H           6.0199849    -1.5498354     0.3684699
H           4.9316787    -2.8167306    -0.3922107
O           2.4518674    -2.6676105    -1.2015363
C           4.0105054    -1.7880693     1.3456298
O           2.8874284    -0.3648402    -2.2530015
H           4.3058803    -1.3058000     2.2728745
H           3.2797534    -2.5838618     1.4541340
22
196_C9H10O2S_6-11-12-18 (90,) energy =    -897.5197620
C           0.7805744     0.7757846    -0.4549823
H           1.4265894     1.3807497    -1.0827887
C          -0.3722578     1.3084618     0.1225485
H          -0.6247390     2.3522235    -0.0414067
C          -1.2047883     0.4990271     0.8993664
H          -2.1033147     0.9176054     1.3444144
C           1.0858579    -0.5694663    -0.2382477
C          -0.8941410    -0.8485564     1.0975959
H          -1.5516466    -1.4784664     1.6900297
C           0.2568716    -1.3922413     0.5269507
H           0.5041035    -2.4414411     0.6494663
S           2.5818158    -1.2567347    -0.9686787
C           3.8447799    -0.9709513     0.2736037
H           3.9556198     0.0847619     0.5032091
C           5.0777166    -1.8406961     0.2007134
H           6.0308612    -1.3516594     0.3774675
H           5.0928883    -2.6194227    -0.5556081
O           2.4086044    -2.7163924    -1.0865410
C           4.1074454    -2.0084423     1.3354198
O           2.9140715    -0.4349269    -2.1440283
H           4.3727405    -1.6429037     2.3233472
H           3.4869618    -2.8992137     1.3213999
22
196_C9H10O2S_6-11-12-18 (105,) energy =    -897.5184649
C           0.7572880     0.7839357    -0.5097707
H           1.4111792     1.3568140    -1.1589589
C          -0.3960010     1.3457098     0.0388119
H          -0.6427042     2.3824632    -0.1717310
C          -1.2357691     0.5746386     0.8462963
H          -2.1342807     1.0162549     1.2685222
C           1.0541331    -0.5519729    -0.2334516
C          -0.9321814    -0.7643145     1.1052851
H          -1.5946790    -1.3646790     1.7223036
C           0.2184584    -1.3372144     0.5634021
H           0.4608025    -2.3810196     0.7339591
S           2.5483317    -1.2797796    -0.9264169
C           3.7885135    -1.0084089     0.3479639
H           3.7568424     0.0035414     0.7409838
C           5.1323538    -1.6583611     0.1099723
H           6.0110664    -1.0672424     0.3496080
H           5.2348719    -2.2900131    -0.7675808
O           2.3513126    -2.7352087    -1.0538018
C           4.2455025    -2.1534731     1.2154263
O           2.9213003    -0.4670287    -2.0963880
H           4.4969231    -1.9200951     2.2462825
H           3.7525671    -3.1084836     1.0609458
22
196_C9H10O2S_6-11-12-18 (120,) energy =    -897.5165969
C           0.7827705     0.7377400    -0.5264726
H           1.4662513     1.2683733    -1.1810949
C          -0.3587505     1.3547413    -0.0139095
H          -0.5662808     2.3925231    -0.2588724
C          -1.2372033     0.6373598     0.8020746
H          -2.1261078     1.1221555     1.1963551
C           1.0283566    -0.5986593    -0.2056701
C          -0.9843988    -0.7027268     1.1054382
H          -1.6767310    -1.2608893     1.7292732
C           0.1541324    -1.3308728     0.5998312
H           0.3591530    -2.3762874     0.8062241
S           2.5067951    -1.3989773    -0.8514155
C           3.7373671    -1.0991899     0.4385792
H           3.5558500    -0.1702369     0.9708265
C           5.1586851    -1.4857860     0.1028417
H           5.9412080    -0.8042497     0.4232725
H           5.3357117    -1.9524287    -0.8619820
O           2.2640015    -2.8509977    -0.9287246
C           4.3911977    -2.2677599     1.1296218
O           2.9168332    -0.6481487    -2.0505592
H           4.6339404    -2.1480090     2.1819205
H           4.0376335    -3.2544088     0.8451656
22
196_C9H10O2S_6-11-12-18 (135,) energy =    -897.5152097
C           0.8136854     0.6980450    -0.5373238
H           1.5248095     1.1843329    -1.1970043
C          -0.3117160     1.3714587    -0.0613180
H          -0.4785234     2.4078426    -0.3408564
C          -1.2267261     0.7115145     0.7629417
H          -2.1030458     1.2395366     1.1288319
C           1.0067747    -0.6354726    -0.1718206
C          -1.0264504    -0.6265763     1.1109013
H          -1.7473346    -1.1399314     1.7408528
C           0.0953979    -1.3108381     0.6419021
H           0.2597828    -2.3560390     0.8826822
S           2.4612126    -1.5099794    -0.7754335
C           3.6937176    -1.1903489     0.5207430
H           3.3766186    -0.4087940     1.2044802
C           5.1458129    -1.2867492     0.1260988
H           5.8238058    -0.5540428     0.5545416
H           5.3604248    -1.5497654    -0.9057034
O           2.1584635    -2.9528162    -0.7891468
C           4.5369868    -2.3367425     1.0138262
O           2.9032044    -0.8348964    -2.0086098
H           4.7867343    -2.3502865     2.0711893
H           4.3291417    -3.3105575     0.5801132
22
196_C9H10O2S_6-11-12-18 (150,) energy =    -897.5149514
C           0.8589053     0.6388469    -0.5442139
H           1.6078541     1.0725093    -1.1988414
C          -0.2421167     1.3790045    -0.1126243
H          -0.3511308     2.4145027    -0.4223298
C          -1.2066897     0.7866364     0.7064074
H          -2.0636428     1.3666765     1.0377690
C           0.9771941    -0.6923586    -0.1401811
C          -1.0807750    -0.5499425     1.0931365
H          -1.8400101    -1.0106464     1.7187271
C           0.0159237    -1.3009035     0.6686961
H           0.1238283    -2.3460788     0.9393840
S           2.3993725    -1.6531106    -0.6872879
C           3.6320848    -1.3232629     0.6083732
H           3.2191210    -0.7345207     1.4219476
C           5.0693005    -1.1392826     0.2009259
H           5.6475705    -0.3955270     0.7420546
H           5.2844669    -1.1990316    -0.8619824
O           2.0273839    -3.0779642    -0.6232852
C           4.6421014    -2.3993256     0.9069531
O           2.8836162    -1.0711701    -1.9521370
H           4.9166149    -2.5459442     1.9477969
H           4.5725410    -3.3134282     0.3244600
22
196_C9H10O2S_6-11-12-18 (165,) energy =    -897.5159367
C           0.8755964     0.5915748    -0.5738443
H           1.6302587     0.9862651    -1.2463729
C          -0.2015358     1.3732385    -0.1553773
H          -0.2855616     2.4019441    -0.4940984
C          -1.1738047     0.8306944     0.6886516
H          -2.0122553     1.4424220     1.0102460
C           0.9623726    -0.7302205    -0.1326279
C          -1.0795347    -0.4969984     1.1132220
H          -1.8450511    -0.9189755     1.7581997
C          -0.0072554    -1.2892470     0.7017188
H           0.0751748    -2.3289086     1.0009296
S           2.3552586    -1.7426829    -0.6607775
C           3.6088402    -1.4021668     0.6016964
H           3.1601918    -1.0523619     1.5270077
C           4.9736945    -0.9205792     0.1950112
H           5.4595606    -0.1956143     0.8420956
H           5.1354990    -0.7720418    -0.8686428
O           1.9454159    -3.1513500    -0.5259971
C           4.7873479    -2.3370372     0.6773826
O           2.8445543    -1.2308392    -1.9537782
H           5.1326624    -2.6142339     1.6690811
H           4.8418943    -3.1343960    -0.0582356
22
196_C9H10O2S_6-11-12-18 (180,) energy =    -897.5177265
C           0.9271811     0.5377530    -0.6081250
H           1.6947096     0.8856604    -1.2917221
C          -0.1265153     1.3658082    -0.2207877
H          -0.1790545     2.3840934    -0.5954677
C          -1.1161300     0.8826941     0.6389216
H          -1.9361560     1.5306231     0.9361588
C           0.9729794    -0.7700668    -0.1212079
C          -1.0629079    -0.4315687     1.1100702
H          -1.8421938    -0.8072734     1.7670346
C          -0.0147549    -1.2700196     0.7294572
H           0.0339833    -2.3011364     1.0636916
S           2.3366007    -1.8412243    -0.6069174
C           3.5898502    -1.5193341     0.6471213
H           3.1457139    -1.4036630     1.6318469
C           4.8550364    -0.7852159     0.2991713
H           5.2653148    -0.1193534     1.0531675
H           4.9515558    -0.4429745    -0.7268669
O           1.8760048    -3.2294578    -0.4355739
C           4.8881790    -2.2751942     0.5283205
O           2.8644349    -1.3808940    -1.9040579
H           5.3129418    -2.6680964     1.4470779
H           5.0226659    -2.9108766    -0.3421145
