22
196_C9H10O2S_0-6-11-12 (-165,) energy =    -897.5149598
C           0.2536570    -0.0808241    -1.2725101
H           0.4240355    -0.2975348    -2.3222245
C          -0.8818641     0.6145515    -0.8624960
H          -1.5976979     0.9592182    -1.6032347
C          -1.1022292     0.8620516     0.4951191
H          -1.9909609     1.4011611     0.8110190
C           1.1681828    -0.5239614    -0.3120016
C          -0.1829755     0.4169866     1.4454525
H          -0.3526805     0.6086308     2.5012344
C           0.9641466    -0.2720976     1.0453995
H           1.6840920    -0.6053177     1.7845137
S           2.6512283    -1.3403403    -0.9383576
C           3.3760281    -2.1688141     0.4756613
H           2.7344046    -2.9513310     0.8700180
C           4.3141146    -1.4202020     1.3940489
H           4.2794560    -1.6801312     2.4485970
H           4.4832272    -0.3695913     1.1784724
O           2.2088384    -2.3593383    -1.9040081
C           4.8655724    -2.4102450     0.4101072
O           3.6123848    -0.3042601    -1.3621977
H           5.2142393    -3.3759346     0.7626860
H           5.3943689    -2.0099182    -0.4490551
22
196_C9H10O2S_0-6-11-12 (-150,) energy =    -897.5162201
C           0.1806159    -0.1949896    -1.2468796
H           0.3092083    -0.5163848    -2.2751320
C          -0.9829158     0.4528234    -0.8337575
H          -1.7698334     0.6570891    -1.5541783
C          -1.1389314     0.8310581     0.5015966
H          -2.0491749     1.3311064     0.8206082
C           1.1843468    -0.4567845    -0.3111648
C          -0.1277167     0.5679513     1.4278241
H          -0.2486269     0.8633440     2.4662230
C           1.0464477    -0.0686086     1.0233444
H           1.8378752    -0.2608728     1.7395207
S           2.7095267    -1.1919740    -0.9362192
C           3.3427099    -2.1783143     0.4199358
H           2.6517579    -2.9629078     0.7143679
C           4.2679066    -1.5619463     1.4435693
H           4.1732651    -1.9174707     2.4659754
H           4.4938931    -0.5055674     1.3348251
O           2.3307267    -2.0934946    -2.0365747
C           4.8219671    -2.4803454     0.3930260
O           3.6946422    -0.1195268    -1.1738624
H           5.1153264    -3.4895443     0.6649078
H           5.4066474    -2.0251125    -0.4002190
22
196_C9H10O2S_0-6-11-12 (-135,) energy =    -897.5174514
C           0.1399336    -0.3132664    -1.1973966
H           0.2406825    -0.7312355    -2.1933090
C          -1.0485532     0.2845199    -0.7760112
H          -1.8914786     0.3463983    -1.4584032
C          -1.1545818     0.7981632     0.5176603
H          -2.0826527     1.2597463     0.8434148
C           1.2145377    -0.3898816    -0.3101205
C          -0.0694184     0.7236384     1.3948260
H          -0.1511340     1.1287879     2.3994661
C           1.1267376     0.1386875     0.9807513
H           1.9766754     0.0964277     1.6532961
S           2.7669693    -1.0702331    -0.9300039
C           3.3128000    -2.1987328     0.3520448
H           2.5919420    -2.9917942     0.5288558
C           4.1840065    -1.7059339     1.4826367
H           4.0216888    -2.1558971     2.4580961
H           4.4384965    -0.6504801     1.4916704
O           2.4450261    -1.8530582    -2.1345966
C           4.7851507    -2.5308217     0.3804369
O           3.7675352     0.0117206    -0.9947726
H           5.0456196    -3.5678190     0.5685723
H           5.4246540    -2.0138865    -0.3282253
22
196_C9H10O2S_0-6-11-12 (-120,) energy =    -897.5185657
C           0.1448617    -0.4283860    -1.1444125
H           0.2278325    -0.9374751    -2.0986291
C          -1.0634124     0.1196317    -0.7102707
H          -1.9464340     0.0405346    -1.3379852
C          -1.1354610     0.7681135     0.5236557
H          -2.0781018     1.1919456     0.8588690
C           1.2707048    -0.3194484    -0.3278005
C           0.0026999     0.8824164     1.3270912
H          -0.0528374     1.3981212     2.2815778
C           1.2167956     0.3471704     0.8997843
H           2.1100977     0.4567980     1.5053226
S           2.8387313    -0.9680517    -0.9388845
C           3.3013114    -2.2205515     0.2587301
H           2.5637013    -3.0159653     0.3152007
C           4.0967245    -1.8465532     1.4850976
H           3.8651754    -2.3816983     2.4016250
H           4.3595222    -0.8006903     1.6102865
O           2.5644877    -1.6346162    -2.2225053
C           4.7657640    -2.5736866     0.3525436
O           3.8519931     0.0997407    -0.8484398
H           5.0067292    -3.6269120     0.4591637
H           5.4549131    -2.0012040    -0.2604583
22
196_C9H10O2S_0-6-11-12 (-105,) energy =    -897.5194585
C           0.1889743    -0.5505613    -1.0725325
H           0.2607368    -1.1477111    -1.9753331
C          -1.0341169    -0.0459591    -0.6277774
H          -1.9404621    -0.2572960    -1.1880757
C          -1.0906469     0.7341962     0.5286532
H          -2.0446274     1.1257622     0.8710354
C           1.3441760    -0.2668871    -0.3429086
C           0.0760093     1.0244000     1.2417132
H           0.0306058     1.6454348     2.1318466
C           1.3041553     0.5303399     0.8042278
H           2.2209899     0.7758642     1.3294731
S           2.9244004    -0.8974915    -0.9379057
C           3.2986484    -2.2638017     0.1629784
H           2.5602628    -3.0566080     0.0847632
C           3.9884987    -2.0091634     1.4792638
H           3.6846390    -2.6266455     2.3196393
H           4.2333758    -0.9804280     1.7246423
O           2.7001571    -1.4452310    -2.2856675
C           4.7519426    -2.6297502     0.3424268
O           3.9490698     0.1359928    -0.6993910
H           4.9881589    -3.6891173     0.3697224
H           5.4858684    -2.0043167    -0.1560904
22
196_C9H10O2S_0-6-11-12 (-90,) energy =    -897.5199451
C           0.2074571    -0.6473065    -0.9464644
H           0.2821895    -1.3316983    -1.7851827
C          -1.0307188    -0.1929841    -0.4913968
H          -1.9414707    -0.5396765    -0.9713910
C          -1.0976789     0.7134730     0.5694161
H          -2.0639747     1.0674785     0.9181212
C           1.3683851    -0.1877885    -0.3212100
C           0.0722880     1.1769454     1.1761948
H           0.0174188     1.8941626     1.9902547
C           1.3160366     0.7288218     0.7309299
H           2.2365461     1.0962271     1.1718322
S           2.9679802    -0.7776742    -0.9036678
C           3.2786714    -2.2476064     0.0770490
H           2.5616580    -3.0341102    -0.1397146
C           3.8532104    -2.1186567     1.4647464
H           3.4929301    -2.8198933     2.2119125
H           4.0544214    -1.1163388     1.8301664
O           2.8024950    -1.1984620    -2.3043491
C           4.7186857    -2.6153422     0.3401578
O           3.9841118     0.2205803    -0.5213186
H           4.9702464    -3.6700613     0.2837167
H           5.4790532    -1.9369658    -0.0338005
22
196_C9H10O2S_0-6-11-12 (-75,) energy =    -897.5196638
C           0.9240551     0.1546635     1.5308998
H           1.5862098     0.2250529     2.3883160
C          -0.0787002     1.1006576     1.3216875
H          -0.1869461     1.9331825     2.0110440
C          -0.9483367     0.9708429     0.2352383
H          -1.7307686     1.7082815     0.0784996
C           1.0452653    -0.9127125     0.6375943
C          -0.8216581    -0.1060526    -0.6446029
H          -1.5057556    -0.2095163    -1.4821028
C           0.1829255    -1.0553375    -0.4499194
H           0.2965026    -1.9054399    -1.1141141
S           2.3563646    -2.1230569     0.8852097
C           3.8439549    -1.2737552     0.3515204
H           4.1022997    -0.4561382     1.0177669
C           4.1599431    -1.1749122    -1.1191002
H           4.6203045    -0.2527754    -1.4618091
H           3.4527724    -1.6221788    -1.8112305
O           2.4789520    -2.3632830     2.3321653
C           4.9453845    -2.1144852    -0.2471667
O           2.1229399    -3.2342770    -0.0558511
H           5.9618857    -1.8584727     0.0359814
H           4.7496002    -3.1757668    -0.3632775
22
196_C9H10O2S_0-6-11-12 (-60,) energy =    -897.5185490
C           1.0378523     0.2095909     1.3755392
H           1.7988227     0.3513123     2.1371966
C           0.0376366     1.1631030     1.1914681
H           0.0335775     2.0640074     1.7983860
C          -0.9607369     0.9556886     0.2353298
H          -1.7403845     1.6998133     0.0978077
C           1.0279844    -0.9456631     0.5895863
C          -0.9610474    -0.2041632    -0.5413944
H          -1.7391686    -0.3647842    -1.2822289
C           0.0420009    -1.1604786    -0.3731293
H           0.0705714    -2.0650251    -0.9710996
S           2.3199332    -2.1856130     0.8008035
C           3.8416686    -1.3073393     0.4382911
H           4.0831416    -0.5782555     1.2054838
C           4.2310009    -1.0512594    -0.9953938
H           4.7233003    -0.1070431    -1.2096945
H           3.5498013    -1.4009447    -1.7655034
O           2.3605440    -2.5662569     2.2219800
C           4.9570227    -2.0998362    -0.2000883
O           2.1323789    -3.2032183    -0.2499262
H           5.9626231    -1.8988475     0.1567068
H           4.7499199    -3.1372319    -0.4428993
22
196_C9H10O2S_0-6-11-12 (-45,) energy =    -897.5169908
C           1.1446178     0.2835441     1.1873614
H           2.0004709     0.4964523     1.8203946
C           0.1341880     1.2330670     1.0383551
H           0.2149226     2.1899889     1.5461213
C          -0.9793882     0.9524620     0.2425851
H          -1.7653487     1.6942803     0.1314245
C           1.0291235    -0.9432927     0.5292145
C          -1.0824915    -0.2759654    -0.4126090
H          -1.9460399    -0.4914711    -1.0354116
C          -0.0714300    -1.2285574    -0.2797217
H          -0.1194088    -2.1797874    -0.7989396
S           2.3002244    -2.2126342     0.7057667
C           3.8544789    -1.3352254     0.5290503
H           4.0832370    -0.7241301     1.3962871
C           4.3162377    -0.9084201    -0.8417141
H           4.8407533     0.0402671    -0.9104927
H           3.6618654    -1.1344435    -1.6784667
O           2.2471558    -2.7369529     2.0802352
C           4.9783090    -2.0722972    -0.1602895
O           2.1667955    -3.1225344    -0.4472336
H           5.9702147    -1.9487791     0.2635870
H           4.7563543    -3.0629944    -0.5437244
22
196_C9H10O2S_0-6-11-12 (-30,) energy =    -897.5155256
C           1.2188037     0.2999595     0.9731010
H           2.1539347     0.5625112     1.4566869
C           0.1989200     1.2471007     0.8707032
H           0.3506791     2.2455183     1.2709613
C          -1.0096655     0.9130368     0.2568235
H          -1.8011996     1.6532771     0.1805346
C           1.0149371    -0.9799078     0.4541813
C          -1.1997862    -0.3683046    -0.2654494
H          -2.1364396    -0.6258333    -0.7516008
C          -0.1838585    -1.3192904    -0.1773881
H          -0.3053857    -2.3095783    -0.6037066
S           2.2706358    -2.2721268     0.5789816
C           3.8422733    -1.4083087     0.5763460
H           4.0425985    -0.9157020     1.5224196
C           4.3783105    -0.8336270    -0.7113664
H           4.9249292     0.1025792    -0.6423349
H           3.7599349    -0.9408597    -1.5977309
O           2.1371229    -2.9332168     1.8876056
C           4.9830934    -2.0864989    -0.1456963
O           2.1901865    -3.0658203    -0.6615082
H           5.9553843    -2.0393787     0.3350438
H           4.7596073    -3.0188697    -0.6540353
22
196_C9H10O2S_0-6-11-12 (-15,) energy =    -897.5145340
C           1.2714392     0.3335919     0.7604709
H           2.2625040     0.6254654     1.0902779
C           0.2455164     1.2801896     0.7136871
H           0.4479971     2.3052456     1.0109957
C          -1.0303704     0.9122816     0.2860174
H          -1.8252366     1.6520504     0.2521248
C           1.0039373    -0.9802371     0.3748242
C          -1.2854911    -0.4051155    -0.1043078
H          -2.2764322    -0.6913031    -0.4449701
C          -0.2682160    -1.3563259    -0.0670763
H          -0.4511153    -2.3772702    -0.3867242
S           2.2489571    -2.2865903     0.4336311
C           3.8231689    -1.4482304     0.6135224
H           3.9642130    -1.0441660     1.6111117
C           4.4547924    -0.7744724    -0.5808201
H           5.0093438     0.1407570    -0.3934645
H           3.8965830    -0.7927064    -1.5122024
O           2.0270618    -3.0820825     1.6523310
C           5.0013171    -2.0828255    -0.0881469
O           2.2414940    -2.9477857    -0.8847182
H           5.9384652    -2.0965222     0.4597004
H           4.8002977    -2.9629413    -0.6903344
22
196_C9H10O2S_0-6-11-12 (0,) energy =    -897.5142407
C           1.2970401     0.3554271     0.5613903
H           2.3189328     0.6703709     0.7405337
C           0.2626716     1.2944530     0.5816306
H           0.4899218     2.3372311     0.7844392
C          -1.0522506     0.8964129     0.3420282
H          -1.8530197     1.6303914     0.3582094
C           0.9978979    -0.9815998     0.2992561
C          -1.3409010    -0.4461777     0.0811531
H          -2.3645848    -0.7581388    -0.1049502
C          -0.3181747    -1.3913624     0.0607190
H          -0.5354000    -2.4365809    -0.1359247
S           2.2517227    -2.2799731     0.2697058
C           3.8060163    -1.4643221     0.6294904
H           3.8638817    -1.1187697     1.6571744
C           4.5441840    -0.7315001    -0.4658894
H           5.0888050     0.1635414    -0.1779427
H           4.0684533    -0.6901545    -1.4411312
O           1.9567839    -3.2090738     1.3724550
C           5.0350499    -2.0726647    -0.0047999
O           2.3356272    -2.7908509    -1.1115409
H           5.9212483    -2.1303965     0.6195308
H           4.8803507    -2.9131901    -0.6736155
22
196_C9H10O2S_0-6-11-12 (15,) energy =    -897.5148679
C           1.2998053     0.3681053     0.3613449
H           2.3321555     0.6980615     0.3930310
C           0.2632956     1.3003120     0.4500909
H           0.4985427     2.3552572     0.5594062
C          -1.0657463     0.8798322     0.3981934
H          -1.8683436     1.6089136     0.4656269
C           0.9883091    -0.9849859     0.2224043
C          -1.3660253    -0.4787359     0.2661295
H          -2.4006062    -0.8081793     0.2343550
C          -0.3407204    -1.4185103     0.1864787
H          -0.5630987    -2.4781003     0.1111909
S           2.2516062    -2.2687450     0.0971987
C           3.7767551    -1.4944086     0.6316287
H           3.7476475    -1.2011166     1.6768553
C           4.6162795    -0.7152894    -0.3541726
H           5.1433393     0.1540441     0.0296104
H           4.2296349    -0.6168427    -1.3639762
O           1.8969078    -3.3192112     1.0652377
C           5.0497086    -2.0866923     0.0747034
O           2.4262413    -2.6184875    -1.3255142
H           5.8772817    -2.1923986     0.7692528
H           4.9466475    -2.8865488    -0.6516530
22
196_C9H10O2S_0-6-11-12 (30,) energy =    -897.5160089
C           1.2815892     0.3954464     0.1487372
H           2.3064651     0.7312348     0.0349357
C           0.2500004     1.3252400     0.2895865
H           0.4805617     2.3868409     0.2915977
C          -1.0705635     0.8937371     0.4262043
H          -1.8701185     1.6214390     0.5334467
C           0.9745982    -0.9667225     0.1500656
C          -1.3648333    -0.4717955     0.4330491
H          -2.3910260    -0.8085550     0.5492067
C          -0.3413761    -1.4096574     0.3052829
H          -0.5487717    -2.4739959     0.3407056
S           2.2440862    -2.2348492    -0.0484404
C           3.7317820    -1.5221248     0.6530154
H           3.6173272    -1.2872597     1.7071837
C           4.6631261    -0.7029006    -0.2099200
H           5.1673134     0.1321637     0.2688387
H           4.3679643    -0.5407579    -1.2421438
O           1.8365698    -3.3810152     0.7805770
C           5.0387457    -2.1054954     0.1716586
O           2.5078924    -2.4289820    -1.4870336
H           5.8030581    -2.2682480     0.9252071
H           4.9884349    -2.8588252    -0.6082620
22
196_C9H10O2S_0-6-11-12 (45,) energy =    -897.5172342
C           1.2525636     0.3868128    -0.0729031
H           2.2470312     0.7212966    -0.3478879
C           0.2304843     1.3139107     0.1300644
H           0.4367112     2.3748795     0.0206872
C          -1.0534803     0.8798627     0.4689548
H          -1.8467907     1.6060027     0.6233775
C           0.9746588    -0.9748382     0.0732199
C          -1.3183647    -0.4832277     0.6141985
H          -2.3155113    -0.8198368     0.8832673
C          -0.3008481    -1.4190454     0.4253533
H          -0.4778956    -2.4811308     0.5566458
S           2.2515006    -2.2223175    -0.1961972
C           3.6932895    -1.5876236     0.6604048
H           3.5072604    -1.4450642     1.7209787
C           4.6773610    -0.6958884    -0.0586238
H           5.1421799     0.0925834     0.5267619
H           4.4569214    -0.4433388    -1.0913530
O           1.8057243    -3.4488147     0.4852276
C           5.0320953    -2.1286480     0.2201953
O           2.5940503    -2.2566479    -1.6306966
H           5.7440459    -2.3614334     1.0060110
H           5.0392486    -2.8073333    -0.6270228
22
196_C9H10O2S_0-6-11-12 (60,) energy =    -897.5184437
C           1.2009406     0.3735481    -0.3107762
H           2.1384929     0.6907508    -0.7547395
C           0.1932232     1.3004984    -0.0489748
H           0.3541697     2.3503029    -0.2772043
C          -1.0222149     0.8793337     0.4980919
H          -1.8055193     1.6055214     0.6972127
C           0.9776372    -0.9741068    -0.0140746
C          -1.2333807    -0.4695693     0.7881976
H          -2.1790268    -0.7951494     1.2121924
C          -0.2279934    -1.4055932     0.5394293
H          -0.3627966    -2.4579558     0.7650981
S           2.2615833    -2.1999248    -0.3335606
C           3.6483349    -1.6625435     0.6694252
H           3.3966683    -1.6360521     1.7257804
C           4.6598082    -0.6904714     0.1142249
H           5.0765385     0.0334641     0.8087227
H           4.5015149    -0.3287115    -0.8970637
O           1.7782090    -3.4857337     0.1957249
C           5.0181742    -2.1432323     0.2565120
O           2.6859823    -2.0803370    -1.7410197
H           5.6852522    -2.4557593     1.0540406
H           5.0861466    -2.7244052    -0.6578634
22
196_C9H10O2S_0-6-11-12 (75,) energy =    -897.5194129
C           1.1247036     0.3670596    -0.5168524
H           1.9847665     0.6520854    -1.1133973
C           0.1322251     1.2953688    -0.2053483
H           0.2292208     2.3225705    -0.5452481
C          -0.9883319     0.9029281     0.5323359
H          -1.7605225     1.6295437     0.7697762
C           0.9809034    -0.9519772    -0.0780734
C          -1.1231693    -0.4195251     0.9591149
H          -1.9992466    -0.7240872     1.5246124
C          -0.1333473    -1.3565947     0.6581004
H          -0.2182605    -2.3916108     0.9717199
S           2.2659531    -2.1612852    -0.4442249
C           3.5958425    -1.7476069     0.6870536
H           3.2925743    -1.8640498     1.7235498
C           4.6064901    -0.6919899     0.3161570
H           4.9715063    -0.0586610     1.1195866
H           4.4858253    -0.1999635    -0.6439469
O           1.7432547    -3.4856567    -0.0706281
C           4.9950045    -2.1440451     0.2830953
O           2.7683361    -1.9001414    -1.8059892
H           5.6321509    -2.5470384     1.0644139
H           5.1190822    -2.5974701    -0.6953515
22
196_C9H10O2S_0-6-11-12 (90,) energy =    -897.5199418
C           1.0272778     0.3705569    -0.7024403
H           1.8025981     0.6217485    -1.4183573
C           0.0376387     1.2906193    -0.3559827
H           0.0481071     2.2845972    -0.7941257
C          -0.9691365     0.9314053     0.5436351
H          -1.7387825     1.6510352     0.8089323
C           0.9930691    -0.9053643    -0.1358381
C          -0.9977107    -0.3517577     1.0950447
H          -1.7900770    -0.6322779     1.7831478
C          -0.0140409    -1.2810711     0.7554020
H          -0.0318222    -2.2902543     1.1537592
S           2.2754122    -2.0975596    -0.5593948
C           3.5535576    -1.8221999     0.6695862
H           3.2129986    -2.0817276     1.6677262
C           4.5481652    -0.7049790     0.4836634
H           4.8664074    -0.1772022     1.3780625
H           4.4466542    -0.0892222    -0.4047494
O           1.7214811    -3.4433112    -0.3383784
C           4.9768292    -2.1306416     0.2731663
O           2.8400288    -1.7092926    -1.8654487
H           5.5953924    -2.6199132     1.0194275
H           5.1476500    -2.4480027    -0.7507045
22
196_C9H10O2S_0-6-11-12 (105,) energy =    -897.5196959
C           0.9183533     0.3627797    -0.8353025
H           1.6142448     0.5830221    -1.6377462
C          -0.0887926     1.2601958    -0.4769318
H          -0.1796710     2.2067349    -1.0022061
C          -0.9809001     0.9391476     0.5482056
H          -1.7634155     1.6408157     0.8237323
C           1.0167391    -0.8505488    -0.1534606
C          -0.8803377    -0.2859111     1.2133904
H          -1.5863322    -0.5395484     1.9990566
C           0.1173532    -1.1933791     0.8592779
H           0.1851904    -2.1630063     1.3425742
S           2.2978032    -2.0251537    -0.6277844
C           3.5227344    -1.8924805     0.6761599
H           3.1452755    -2.2652968     1.6236569
C           4.5148536    -0.7575892     0.6564699
H           4.7946072    -0.3331133     1.6163221
H           4.4392703    -0.0446286    -0.1590372
O           1.7166259    -3.3753709    -0.5544859
C           4.9630315    -2.1484813     0.3036578
O           2.9218317    -1.5293587    -1.8686591
H           5.5562936    -2.7157191     1.0144318
H           5.1750384    -2.3493265    -0.7417379
22
196_C9H10O2S_0-6-11-12 (120,) energy =    -897.5187341
C           0.8046015     0.3427945    -0.9533382
H           1.4228016     0.5318819    -1.8244226
C          -0.2292357     1.2073880    -0.5887759
H          -0.4276988     2.0920030    -1.1872159
C          -1.0065501     0.9343054     0.5379540
H          -1.8089305     1.6107237     0.8193074
C           1.0468298    -0.7885330    -0.1747007
C          -0.7642652    -0.2119129     1.3006536
H          -1.3801629    -0.4299312     2.1684996
C           0.2583598    -1.0877070     0.9398183
H           0.4281597    -1.9986015     1.5059674
S           2.3302041    -1.9425053    -0.6956831
C           3.4954875    -1.9572981     0.6678822
H           3.0762398    -2.4195482     1.5563064
C           4.4974192    -0.8386518     0.8021071
H           4.7414625    -0.5157833     1.8100803
H           4.4598923    -0.0467195     0.0600578
O           1.7283452    -3.2832467    -0.7759508
C           4.9477740    -2.1929771     0.3302168
O           3.0152219    -1.3490649    -1.8592842
H           5.5060805    -2.8352272     1.0045232
H           5.2013094    -2.2923544    -0.7204707
22
196_C9H10O2S_0-6-11-12 (135,) energy =    -897.5173190
C           0.7050871     0.3030217    -1.0650711
H           1.2418801     0.4466408    -1.9967740
C          -0.3519778     1.1372655    -0.6980542
H          -0.6561547     1.9432308    -1.3598181
C          -1.0147327     0.9374293     0.5140566
H          -1.8350442     1.5908361     0.7978879
C           1.0892211    -0.7255105    -0.2043081
C          -0.6307252    -0.1050340     1.3618558
H          -1.1531052    -0.2658518     2.3006238
C           0.4162765    -0.9512609     0.9993391
H           0.6958188    -1.7785202     1.6445935
S           2.3738064    -1.8627072    -0.7630272
C           3.4752340    -2.0359070     0.6418004
H           3.0311066    -2.6181972     1.4428750
C           4.4526368    -0.9323391     0.9598618
H           4.6491207    -0.7369446     2.0101279
H           4.4317199    -0.0523653     0.3237405
O           1.7544906    -3.1768539    -0.9999220
C           4.9448964    -2.2096014     0.3401836
O           3.1213730    -1.1817566    -1.8368080
H           5.4840247    -2.9263755     0.9520550
H           5.2423081    -2.1724401    -0.7028930
22
196_C9H10O2S_0-6-11-12 (150,) energy =    -897.5158086
C           0.5904894     0.2343788    -1.1512582
H           1.0333724     0.3168488    -2.1383453
C          -0.4853905     1.0374573    -0.7736991
H          -0.9001535     1.7484822    -1.4824959
C          -1.0237107     0.9317081     0.5104720
H          -1.8591336     1.5619022     0.8024383
C           1.1209685    -0.6720353    -0.2307836
C          -0.4912239     0.0161978     1.4205973
H          -0.9113527    -0.0690056     2.4187413
C           0.5783082    -0.7993204     1.0496016
H           0.9789368    -1.5202634     1.7548902
S           2.4210110    -1.7771648    -0.8206048
C           3.4462910    -2.1073905     0.6132675
H           2.9739159    -2.7939780     1.3084439
C           4.3893529    -1.0427978     1.1163650
H           4.5291642    -0.9777066     2.1916268
H           4.3860099    -0.0902617     0.5946085
O           1.8039404    -3.0525703    -1.2198623
C           4.9325911    -2.2274392     0.3699260
O           3.2288034    -1.0103174    -1.7874733
H           5.4499475    -3.0102195     0.9160734
H           5.2808363    -2.0581559    -0.6438435
22
196_C9H10O2S_0-6-11-12 (165,) energy =    -897.5146537
C           0.4662249     0.1691818    -1.2231017
H           0.8073849     0.1803413    -2.2533591
C          -0.6275659     0.9349733    -0.8247362
H          -1.1540780     1.5409935    -1.5564651
C          -1.0422562     0.9272131     0.5096349
H          -1.8938784     1.5276217     0.8170389
C           1.1412538    -0.6043800    -0.2741768
C          -0.3629010     0.1503880     1.4485933
H          -0.6829506     0.1444200     2.4866922
C           0.7304739    -0.6261968     1.0591847
H           1.2540645    -1.2295708     1.7928131
S           2.4803598    -1.6442845    -0.8942087
C           3.4147864    -2.1431458     0.5521787
H           2.8969696    -2.8958687     1.1382043
C           4.3443424    -1.1591266     1.2202495
H           4.4288615    -1.2183082     2.3017343
H           4.3805058    -0.1542239     0.8099468
O           1.8886605    -2.8590112    -1.4785056
C           4.9105804    -2.2619976     0.3738034
O           3.3492242    -0.7822165    -1.7172322
H           5.3877406    -3.1107512     0.8539102
H           5.3141810    -1.9867288    -0.5952167
22
196_C9H10O2S_0-6-11-12 (180,) energy =    -897.5142343
C           0.3539499     0.0360697    -1.2772505
H           0.5979411    -0.0600740    -2.3306140
C          -0.7616955     0.7637766    -0.8703001
H          -1.3916776     1.2414617    -1.6151476
C          -1.0695851     0.8783637     0.4883903
H          -1.9410404     1.4463884     0.8016623
C           1.1608054    -0.5761590    -0.3124617
C          -0.2582475     0.2650815     1.4425646
H          -0.4942128     0.3539449     2.4992548
C           0.8645713    -0.4658472     1.0462178
H           1.4975190    -0.9338354     1.7918102
S           2.5793235    -1.5028010    -0.9353601
C           3.4057877    -2.1595736     0.5124123
H           2.8279912    -2.9382010     1.0010773
C           4.3337218    -1.2787765     1.3154552
H           4.3566911    -1.4392822     2.3898490
H           4.4302472    -0.2442469     0.9999002
O           2.0629986    -2.6358605    -1.7202082
C           4.9035874    -2.3243875     0.4020659
O           3.5012258    -0.5390760    -1.5654284
H           5.3210978    -3.2324170     0.8259089
H           5.3717764    -1.9794234    -0.5141964
