22
083_C10H12_0-2-10-8 (-165,) energy =    -388.2811425
C           1.7245117    -1.4385401    -0.7703372
H           2.2434132    -1.7304343    -1.6772432
C           2.3337177    -0.6948026     0.1689744
H           1.7435092    -0.4823830     1.0627090
C           6.2443045     1.0127449     0.6726609
H           7.2282816     1.4484476     0.8238769
C           5.3553123     0.8767626     1.7375256
H           5.6320704     1.2043424     2.7360353
C           4.1011238     0.3216990     1.5093421
H           3.4062685     0.2201994     2.3399418
C           3.6923223    -0.1277877     0.2367316
C           4.5971669     0.0264570    -0.8474237
C           4.2661780    -0.3700838    -2.2665884
H           5.0140156     0.0284892    -2.9593141
H           3.2840447     0.0057911    -2.5753489
H           4.2507210    -1.4600416    -2.3977253
C           5.8528572     0.5947764    -0.5980884
H           6.5396961     0.7163193    -1.4328246
C           0.3173975    -1.9478564    -0.6408316
H           0.2865356    -3.0456934    -0.6794648
H          -0.3137464    -1.5906779    -1.4665396
H          -0.1439924    -1.6285351     0.2998277
22
083_C10H12_0-2-10-8 (-150,) energy =    -388.2811004
C           1.7818418    -1.5039917    -0.6953426
H           2.4072307    -1.9624883    -1.4571522
C           2.2978096    -0.5941684     0.1460281
H           1.6325902    -0.2121612     0.9232609
C           6.2735992     0.9389008     0.6868554
H           7.2758629     1.3284767     0.8441145
C           5.3835119     0.8184479     1.7536742
H           5.6796481     1.1110881     2.7575035
C           4.1040582     0.3265191     1.5198981
H           3.4060786     0.2379620     2.3494898
C           3.6769426    -0.0766328     0.2391689
C           4.5789204     0.0630529    -0.8464797
C           4.2152723    -0.2795072    -2.2732135
H           4.8847388     0.2333189    -2.9714701
H           3.1856891     0.0078747    -2.5102457
H           4.3036444    -1.3552277    -2.4756626
C           5.8598792     0.5713635    -0.5920331
H           6.5465032     0.6877475    -1.4278629
C           0.3594864    -1.9827193    -0.6459111
H           0.3110491    -3.0674207    -0.4771708
H          -0.1595695    -1.7927135    -1.5956364
H          -0.2050501    -1.4893091     0.1525377
22
083_C10H12_0-2-10-8 (-135,) energy =    -388.2804103
C           1.8232813    -1.5478603    -0.6025344
H           2.5294572    -2.1256691    -1.1973861
C           2.2622027    -0.4966495     0.1037308
H           1.5393651     0.0250050     0.7349185
C           6.2893744     0.8723315     0.7034739
H           7.3064061     1.2169841     0.8709831
C           5.3967460     0.7545439     1.7693283
H           5.7079114     1.0021350     2.7807461
C           4.0976138     0.3212755     1.5254678
H           3.3971284     0.2324114     2.3529489
C           3.6570978    -0.0186495     0.2327056
C           4.5605285     0.1102118    -0.8495558
C           4.1755421    -0.1903248    -2.2813958
H           4.8028426     0.3801214    -2.9745491
H           3.1281092     0.0546738    -2.4806918
H           4.3088346    -1.2518958    -2.5287171
C           5.8622241     0.5591520    -0.5850735
H           6.5530500     0.6710908    -1.4181652
C           0.3988037    -2.0211931    -0.6291622
H           0.3188539    -3.0581903    -0.2752162
H          -0.0079885    -2.0085830    -1.6497835
H          -0.2449536    -1.3968286    -0.0003676
22
083_C10H12_0-2-10-8 (-120,) energy =    -388.2790998
C           1.6879446    -1.4191723    -0.1966631
H           2.3239934    -2.1502684     0.3037524
C           2.1984821    -0.2219291    -0.5086985
H           1.5363542     0.5178051    -0.9650224
C           6.0845887     1.2529452     0.5854001
H           7.0630054     1.6312769     0.8698667
C           4.9247072     1.9035786     1.0075970
H           4.9854407     2.7923252     1.6301878
C           3.6832929     1.4045084     0.6232479
H           2.7757616     1.9079792     0.9487778
C           3.5662867     0.2540046    -0.1754165
C           4.7405574    -0.4042606    -0.6055603
C           4.7037675    -1.6386487    -1.4802918
H           5.6386965    -1.7415677    -2.0412135
H           3.8740409    -1.6072490    -2.1924309
H           4.5798976    -2.5552817    -0.8889474
C           5.9823137     0.1173328    -0.2153484
H           6.8880791    -0.3805544    -0.5551669
C           0.2787503    -1.8523353    -0.4804409
H          -0.2462233    -2.1249807     0.4451829
H           0.2566618    -2.7417821    -1.1250098
H          -0.2935874    -1.0604783    -0.9754412
22
083_C10H12_0-2-10-8 (-105,) energy =    -388.2779944
C           1.6503675    -1.3670972    -0.0760832
H           2.2039507    -1.9785091     0.6383960
C           2.2300300    -0.2662098    -0.5654314
H           1.6627772     0.3569864    -1.2616620
C           6.0933902     1.2321477     0.5886666
H           7.0684069     1.6133474     0.8810595
C           4.9286483     1.8403548     1.0551959
H           4.9827156     2.6993246     1.7188786
C           3.6888750     1.3366320     0.6644570
H           2.7764722     1.8045516     1.0263851
C           3.5860216     0.2257920    -0.1859438
C           4.7646972    -0.3886458    -0.6628982
C           4.7159521    -1.5810120    -1.5927780
H           5.7071518    -1.7908000    -2.0075044
H           4.0244771    -1.4160080    -2.4264511
H           4.3733038    -2.4866626    -1.0778554
C           6.0026161     0.1316194    -0.2628537
H           6.9126360    -0.3369162    -0.6314458
C           0.2712517    -1.8449172    -0.4294309
H          -0.3654004    -1.9149844     0.4628948
H           0.2996036    -2.8497057    -0.8726714
H          -0.2166430    -1.1726897    -1.1433912
22
083_C10H12_0-2-10-8 (-90,) energy =    -388.2781386
C           1.5870445    -1.3047992     0.0367852
H           2.0253349    -1.7497083     0.9315831
C           2.2630955    -0.3412240    -0.5967003
H           1.8282542     0.0972003    -1.4991276
C           6.0833052     1.2373187     0.5911141
H           7.0495577     1.6391497     0.8850294
C           4.9074507     1.7828514     1.1031644
H           4.9439219     2.6153391     1.8009373
C           3.6774457     1.2527374     0.7121751
H           2.7555059     1.6726301     1.1063386
C           3.5997738     0.1744453    -0.1796200
C           4.7901327    -0.3716389    -0.7085706
C           4.7511968    -1.5210590    -1.6896672
H           5.7608673    -1.8002655    -2.0070305
H           4.1751229    -1.2657577    -2.5880567
H           4.2736892    -2.4071085    -1.2557793
C           6.0164308     0.1710478    -0.3064857
H           6.9353832    -0.2515750    -0.7070281
C           0.2437584    -1.8328201    -0.3789211
H          -0.4995579    -1.7014128     0.4189765
H           0.2885201    -2.9099122    -0.5900398
H          -0.1276600    -1.3261622    -1.2761683
22
083_C10H12_0-2-10-8 (-75,) energy =    -388.2794924
C           1.5173528    -1.2395992     0.1182268
H           1.8430260    -1.5005080     1.1263655
C           2.2945600    -0.4381622    -0.6185559
H           1.9871942    -0.2068352    -1.6419004
C           6.0577079     1.2348487     0.6069252
H           7.0113628     1.6610461     0.9075048
C           4.8683151     1.7122967     1.1537709
H           4.8815659     2.5181756     1.8828995
C           3.6540259     1.1530774     0.7530314
H           2.7201785     1.5241854     1.1670519
C           3.6074643     0.1074225    -0.1789377
C           4.8119733    -0.3645666    -0.7481216
C           4.7992196    -1.4720589    -1.7759088
H           5.8167567    -1.7590288    -2.0591712
H           4.2725998    -1.1689370    -2.6906960
H           4.2837521    -2.3633952    -1.3999105
C           6.0209933     0.2058524    -0.3357919
H           6.9506115    -0.1646641    -0.7625523
C           0.2001623    -1.8092756    -0.3243875
H          -0.6161890    -1.4808262     0.3332972
H           0.2091839    -2.9069494    -0.2865515
H          -0.0461944    -1.5060755    -1.3476548
22
083_C10H12_0-2-10-8 (-60,) energy =    -388.2813825
C           1.4617758    -1.1451165     0.1694385
H           1.6922943    -1.2193971     1.2332539
C           2.3332839    -0.5211606    -0.6332869
H           2.1263544    -0.4927901    -1.7054317
C           6.0320759     1.2546783     0.6299480
H           6.9706816     1.7055115     0.9415724
C           4.8280945     1.6674701     1.1976155
H           4.8146675     2.4489573     1.9528375
C           3.6336741     1.0799215     0.7801953
H           2.6881681     1.4085065     1.2033814
C           3.6200946     0.0648531    -0.1876857
C           4.8396931    -0.3388969    -0.7790564
C           4.8654301    -1.4120755    -1.8424865
H           5.8926778    -1.6576472    -2.1293166
H           4.3352266    -1.0965971    -2.7512438
H           4.3781452    -2.3318446    -1.4978396
C           6.0282215     0.2607299    -0.3505443
H           6.9686893    -0.0594529    -0.7939219
C           0.1636610    -1.7545298    -0.2747605
H          -0.6899939    -1.2917230     0.2391787
H           0.1263034    -2.8265100    -0.0377961
H           0.0124664    -1.6390146    -1.3534037
22
083_C10H12_0-2-10-8 (-45,) energy =    -388.2829602
C           1.4154329    -1.0636691     0.1965030
H           1.5641746    -0.9657447     1.2727447
C           2.3752185    -0.6217200    -0.6282999
H           2.2432182    -0.7720756    -1.7008948
C           6.0289182     1.2469810     0.6261399
H           6.9569229     1.7192302     0.9376056
C           4.8206712     1.5996119     1.2255086
H           4.7928418     2.3560329     2.0054657
C           3.6405124     0.9879488     0.8061193
H           2.6921458     1.2795653     1.2493318
C           3.6418704     0.0059540    -0.1975578
C           4.8664953    -0.3387229    -0.8178697
C           4.9208447    -1.3793669    -1.9129291
H           5.9541584    -1.5767730    -2.2145414
H           4.3725194    -1.0585770    -2.8089780
H           4.4746790    -2.3281507    -1.5918246
C           6.0406300     0.2873373    -0.3873717
H           6.9837052     0.0136604    -0.8555638
C           0.1272036    -1.6965606    -0.2420436
H          -0.7396892    -1.1215882     0.1119979
H           0.0195043    -2.7083963     0.1720590
H           0.0631155    -1.7666784    -1.3332041
22
083_C10H12_0-2-10-8 (-30,) energy =    -388.2836015
C           1.3579520    -0.9926016     0.2123357
H           1.4087756    -0.7273134     1.2688320
C           2.4037629    -0.7207281    -0.5827815
H           2.3446122    -1.0402914    -1.6230006
C           6.0173782     1.2571892     0.6233721
H           6.9358541     1.7541554     0.9241824
C           4.8129454     1.5495222     1.2630692
H           4.7787187     2.2827068     2.0646638
C           3.6451768     0.9088539     0.8576630
H           2.7020394     1.1629844     1.3333539
C           3.6492879    -0.0429956    -0.1767346
C           4.8714273    -0.3295651    -0.8333215
C           4.9455205    -1.3415853    -1.9548767
H           5.9765427    -1.4626491    -2.3009973
H           4.3423176    -1.0400939    -2.8214637
H           4.5798511    -2.3263106    -1.6396627
C           6.0342363     0.3272541    -0.4161935
H           6.9729393     0.1002708    -0.9169054
C           0.0932415    -1.6629633    -0.2373193
H          -0.7808026    -1.0189524    -0.0668852
H          -0.0891839    -2.5892154     0.3247675
H           0.1256940    -1.9124188    -1.3033246
22
083_C10H12_0-2-10-8 (-15,) energy =    -388.2833811
C           1.3020089    -0.9206837     0.2009599
H           1.2436953    -0.4746207     1.1937787
C           2.4312461    -0.8107218    -0.5164201
H           2.4489348    -1.2995096    -1.4889193
C           6.0173125     1.2712291     0.6072313
H           6.9296909     1.7920835     0.8851657
C           4.8276535     1.5069037     1.2969889
H           4.7990795     2.2181912     2.1182773
C           3.6690557     0.8345739     0.9219669
H           2.7428505     1.0459736     1.4483445
C           3.6605938    -0.0911794    -0.1373616
C           4.8699814    -0.3251477    -0.8394944
C           4.9489018    -1.3079550    -1.9876564
H           5.9721911    -1.3722248    -2.3698840
H           4.3042536    -1.0151857    -2.8265532
H           4.6435565    -2.3171968    -1.6859122
C           6.0248475     0.3635312    -0.4506300
H           6.9508982     0.1787079    -0.9905514
C           0.0724632    -1.6481790    -0.2570171
H          -0.7960124    -0.9758706    -0.2975640
H          -0.1942136    -2.4578390     0.4363962
H           0.2085380    -2.0841985    -1.2525341
22
083_C10H12_0-2-10-8 (0,) energy =    -388.2831038
C           1.2614738    -0.8297114     0.1583643
H           1.1076915    -0.1772529     1.0175506
C           2.4607468    -0.8833628    -0.4427421
H           2.5493121    -1.5536840    -1.2950378
C           6.0268186     1.2827138     0.5893544
H           6.9336344     1.8255520     0.8421783
C           4.8597881     1.4653335     1.3322632
H           4.8443929     2.1535770     2.1733073
C           3.7096747     0.7614564     0.9928901
H           2.8097488     0.9146570     1.5810265
C           3.6828487    -0.1398285    -0.0876818
C           4.8709088    -0.3230616    -0.8405414
C           4.9359843    -1.2713877    -2.0188188
H           5.9372985    -1.2667137    -2.4599735
H           4.2273758    -0.9960853    -2.8099343
H           4.7094150    -2.3052270    -1.7296444
C           6.0192186     0.3942595    -0.4840808
H           6.9272748     0.2495188    -1.0651653
C           0.0634213    -1.6243849    -0.2707236
H          -0.7764383    -0.9674657    -0.5369977
H          -0.2958582    -2.2737054     0.5398890
H           0.2870231    -2.2562863    -1.1369777
22
083_C10H12_0-2-10-8 (15,) energy =    -388.2833810
C           1.2421302    -0.7757358     0.0640740
H           1.0385836     0.0562782     0.7381593
C           2.4890128    -0.9761185    -0.3908692
H           2.6351019    -1.8015548    -1.0853487
C           5.9984441     1.2983392     0.5916021
H           6.8900875     1.8711159     0.8320928
C           4.8494260     1.4142713     1.3745608
H           4.8344904     2.0758294     2.2367694
C           3.7198235     0.6683918     1.0543843
H           2.8400261     0.7461701     1.6864606
C           3.6966707    -0.2027012    -0.0501424
C           4.8674595    -0.3219104    -0.8409136
C           4.9250126    -1.2322157    -2.0485686
H           5.8993298    -1.1574655    -2.5409654
H           4.1580754    -0.9787894    -2.7905253
H           4.7748000    -2.2856586    -1.7790275
C           5.9960442     0.4333257    -0.5014693
H           6.8910430     0.3405415    -1.1127350
C           0.0574376    -1.6197779    -0.3035040
H          -0.7296728    -1.0181694    -0.7789254
H          -0.3969419    -2.0773531     0.5864779
H           0.3334080    -2.4246339    -0.9932300
22
083_C10H12_0-2-10-8 (30,) energy =    -388.2836012
C           1.2565593    -0.7347674    -0.0169201
H           1.0496223     0.2176595     0.4721830
C           2.5240264    -1.0565633    -0.3166629
H           2.6963769    -1.9920868    -0.8484319
C           5.9874922     1.3143126     0.5831974
H           6.8675747     1.9121313     0.8048820
C           4.8654542     1.3730989     1.4095688
H           4.8618851     2.0124741     2.2884661
C           3.7508986     0.5929054     1.1135807
H           2.8910156     0.6135552     1.7773226
C           3.7194160    -0.2478463    -0.0125480
C           4.8645025    -0.3154411    -0.8438446
C           4.8978804    -1.2005425    -2.0698370
H           5.8429999    -1.0820676    -2.6085163
H           4.0836132    -0.9637871    -2.7653176
H           4.7983822    -2.2634057    -1.8126946
C           5.9773034     0.4717949    -0.5284569
H           6.8528141     0.4238231    -1.1723196
C           0.0626021    -1.5916813    -0.3188488
H          -0.6561705    -1.0630904    -0.9600345
H          -0.4783152    -1.8584968     0.5998273
H           0.3497064    -2.5206129    -0.8231364
22
083_C10H12_0-2-10-8 (45,) energy =    -388.2829606
C           1.2885981    -0.7541929    -0.1722334
H           1.0818711     0.2733122     0.1302777
C           2.5650262    -1.1493074    -0.2792243
H           2.7635872    -2.1617274    -0.6342954
C           5.9810249     1.3120709     0.5499654
H           6.8501703     1.9309682     0.7567781
C           4.8833555     1.3256751     1.4092777
H           4.8882226     1.9496522     2.2991703
C           3.7816239     0.5186228     1.1306406
H           2.9352709     0.5030988     1.8120541
C           3.7426381    -0.2976471    -0.0112203
C           4.8646233    -0.3241910    -0.8736053
C           4.8789665    -1.1963009    -2.1082170
H           5.7841784    -1.0241711    -2.6986737
H           4.0127741    -1.0010085    -2.7515573
H           4.8505699    -2.2645443    -1.8541134
C           5.9631180     0.4890491    -0.5772323
H           6.8205899     0.4779925    -1.2466518
C           0.0934795    -1.6215422    -0.4400710
H          -0.5394986    -1.1943774    -1.2298547
H          -0.5410694    -1.7117876     0.4524776
H           0.3881592    -2.6303997    -0.7483311
22
083_C10H12_0-2-10-8 (60,) energy =    -388.2813831
C           1.3067026    -0.7509465    -0.2676560
H           1.1078276     0.3157536    -0.1537557
C           2.5715168    -1.1807633    -0.1744378
H           2.7752649    -2.2411352    -0.3394113
C           5.9870116     1.3156960     0.5548565
H           6.8567550     1.9412450     0.7381102
C           4.9280624     1.2967293     1.4606159
H           4.9636818     1.9020684     2.3625901
C           3.8229313     0.4831431     1.2097281
H           3.0006910     0.4474052     1.9194365
C           3.7456122    -0.3040987     0.0515246
C           4.8295141    -0.3009131    -0.8569932
C           4.7958358    -1.1531598    -2.1043007
H           5.6719011    -0.9657979    -2.7329735
H           3.8981693    -0.9561468    -2.7022381
H           4.7849288    -2.2249109    -1.8640045
C           5.9304735     0.5191902    -0.5904429
H           6.7585782     0.5340224    -1.2958517
C           0.1131806    -1.6286231    -0.5105206
H          -0.4226307    -1.3274738    -1.4209569
H          -0.6087902    -1.5563427     0.3144512
H           0.4010725    -2.6800235    -0.6171260
22
083_C10H12_0-2-10-8 (75,) energy =    -388.2794928
C           1.3330363    -0.7666608    -0.3851564
H           1.1599489     0.3059223    -0.4854456
C           2.5647831    -1.1915015    -0.0826041
H           2.7457030    -2.2677936    -0.0192814
C           6.0060989     1.3085893     0.5261551
H           6.8824039     1.9329990     0.6799484
C           4.9918504     1.2694034     1.4808556
H           5.0681628     1.8592128     2.3905569
C           3.8758342     0.4595902     1.2653571
H           3.0835344     0.4155481     2.0079994
C           3.7465949    -0.3051332     0.0979938
C           4.7835760    -0.2804788    -0.8619930
C           4.6924439    -1.1123109    -2.1201270
H           5.5444927    -0.9231496    -2.7805888
H           3.7728733    -0.8990266    -2.6773124
H           4.6791490    -2.1869653    -1.8943781
C           5.8955470     0.5366512    -0.6317523
H           6.6890889     0.5676240    -1.3753399
C           0.1393635    -1.6552461    -0.5874625
H          -0.2965964    -1.5135561    -1.5856012
H          -0.6548918    -1.4251745     0.1357694
H           0.4016278    -2.7130098    -0.4777048
22
083_C10H12_0-2-10-8 (90,) energy =    -388.2781384
C           1.4006216    -0.8085917    -0.4845097
H           1.2881702     0.2237935    -0.8195122
C           2.5770018    -1.1943210     0.0196827
H           2.6932091    -2.2315390     0.3457266
C           6.0436391     1.3075270     0.4898796
H           6.9237336     1.9341196     0.6094870
C           5.0846666     1.2389794     1.4988318
H           5.2061335     1.8104304     2.4153285
C           3.9627721     0.4277449     1.3253958
H           3.2105220     0.3683225     2.1078331
C           3.7748228    -0.3141972     0.1513553
C           4.7518263    -0.2549173    -0.8669416
C           4.6000805    -1.0554374    -2.1402933
H           5.4557336    -0.9007950    -2.8051692
H           3.6907188    -0.7787902    -2.6860385
H           4.5244727    -2.1306653    -1.9345649
C           5.8717012     0.5637251    -0.6781704
H           6.6228417     0.6167423    -1.4633397
C           0.1911582    -1.6883326    -0.6234805
H          -0.1368043    -1.7501355    -1.6699594
H          -0.6584286    -1.2894620    -0.0527543
H           0.3905647    -2.7053790    -0.2691408
22
083_C10H12_0-2-10-8 (105,) energy =    -388.2779944
C           1.4635780    -0.8760681    -0.5918678
H           1.4482912     0.0573803    -1.1568436
C           2.5594865    -1.1859853     0.1083942
H           2.5616954    -2.1095698     0.6930889
C           6.0421305     1.3066684     0.5074497
H           6.9218099     1.9365871     0.6114803
C           5.1278774     1.1928771     1.5540649
H           5.2825729     1.7351991     2.4831429
C           4.0083075     0.3766166     1.4000921
H           3.2899133     0.2849800     2.2112225
C           3.7774396    -0.3311185     0.2111843
C           4.7047483    -0.2204514    -0.8481373
C           4.5152137    -0.9703440    -2.1483339
H           5.4206785    -0.9193887    -2.7615407
H           3.6896104    -0.5580257    -2.7409049
H           4.2781336    -2.0259839    -1.9757661
C           5.8260599     0.6019107    -0.6762479
H           6.5444498     0.6865048    -1.4888329
C           0.2224258    -1.7180172    -0.6680843
H           0.0042482    -2.0124451    -1.7037368
H          -0.6556434    -1.1642335    -0.3091961
H           0.3176273    -2.6299282    -0.0688960
22
083_C10H12_0-2-10-8 (120,) energy =    -388.2790998
C           1.5166664    -0.9649846    -0.6810298
H           1.5982850    -0.1803426    -1.4341235
C           2.5303584    -1.1516578     0.1727781
H           2.4146866    -1.9078678     0.9529177
C           6.0440935     1.2980731     0.5286335
H           6.9284017     1.9223454     0.6268085
C           5.1659165     1.1421143     1.6016572
H           5.3522981     1.6471150     2.5458046
C           4.0445035     0.3306147     1.4539891
H           3.3568471     0.2047636     2.2872693
C           3.7680011    -0.3322932     0.2459681
C           4.6581804    -0.1768960    -0.8406234
C           4.4433007    -0.8678127    -2.1697900
H           5.3931353    -0.9821422    -2.7027633
H           3.7730336    -0.2955785    -2.8244181
H           3.9945109    -1.8575815    -2.0452112
C           5.7867201     0.6379204    -0.6710462
H           6.4800055     0.7495672    -1.5021113
C           0.2434849    -1.7605480    -0.6896836
H           0.0973307    -2.2695018    -1.6523243
H          -0.6306663    -1.1113502    -0.5443768
H           0.2381845    -2.5198643     0.0996477
22
083_C10H12_0-2-10-8 (135,) energy =    -388.2804103
C           1.5606379    -1.0407673    -0.7388431
H           1.7157234    -0.4209823    -1.6210108
C           2.4958532    -1.0671287     0.2209456
H           2.2830666    -1.6528567     1.1179751
C           6.0822666     1.2710521     0.5722069
H           6.9845581     1.8681540     0.6748862
C           5.2198057     1.0982648     1.6552401
H           5.4370294     1.5614812     2.6140608
C           4.0773808     0.3201409     1.4991758
H           3.4048111     0.1791771     2.3424257
C           3.7540402    -0.2891680     0.2723740
C           4.6345335    -0.1213518    -0.8233603
C           4.4007500    -0.7661237    -2.1718229
H           5.3503050    -0.9064617    -2.6991071
H           3.7640131    -0.1477121    -2.8183506
H           3.9100337    -1.7393336    -2.0774330
C           5.7864851     0.6573499    -0.6430187
H           6.4704018     0.7758554    -1.4808825
C           0.2688663    -1.8041934    -0.6903400
H           0.1776279    -2.4907155    -1.5433659
H          -0.5944141    -1.1266543    -0.7425990
H           0.1834197    -2.3933026     0.2290551
22
083_C10H12_0-2-10-8 (150,) energy =    -388.2811004
C           1.5931370    -1.1207329    -0.7937836
H           1.8098965    -0.6894266    -1.7677876
C           2.4535568    -0.9604059     0.2240136
H           2.1523723    -1.3701584     1.1904175
C           6.1334374     1.2228209     0.6017226
H           7.0598362     1.7792123     0.7168588
C           5.2691166     1.0513602     1.6826455
H           5.5088490     1.4727195     2.6552648
C           4.0960827     0.3254852     1.5072488
H           3.4238491     0.1850802     2.3508282
C           3.7357288    -0.2303730     0.2636932
C           4.6250653    -0.0686136    -0.8292962
C           4.3760670    -0.6686026    -2.1942800
H           5.3137365    -0.7456636    -2.7542631
H           3.6921171    -0.0560811    -2.7967742
H           3.9343100    -1.6679873    -2.1243326
C           5.8073980     0.6566268    -0.6290891
H           6.4932434     0.7704029    -1.4659098
C           0.2858589    -1.8508991    -0.6816437
H           0.2366328    -2.6931440    -1.3857054
H          -0.5591987    -1.1923441    -0.9257226
H           0.1287631    -2.2447893     0.3282320
22
083_C10H12_0-2-10-8 (165,) energy =    -388.2811425
C           1.6145440    -1.2280939    -0.8276328
H           1.9054698    -1.0256810    -1.8529648
C           2.4009498    -0.8673547     0.2010034
H           2.0074293    -1.0801325     1.1970398
C           6.1695416     1.1535827     0.6214074
H           7.1179715     1.6678474     0.7515043
C           5.2953293     0.9907905     1.6946873
H           5.5482607     1.3756878     2.6789663
C           4.0926680     0.3218205     1.4964477
H           3.4131403     0.1911289     2.3355979
C           3.7095378    -0.1905760     0.2397199
C           4.6109664    -0.0343405    -0.8470368
C           4.3436363    -0.5766887    -2.2309377
H           5.2504719    -0.5292022    -2.8420006
H           3.5681242    -0.0038198    -2.7561474
H           4.0094157    -1.6200474    -2.2012529
C           5.8205453     0.6360116    -0.6248093
H           6.5099486     0.7476083    -1.4588248
C           0.2818387    -1.8995545    -0.6566966
H           0.2579132    -2.8737040    -1.1648227
H          -0.5257230    -1.2994055    -1.0986756
H           0.0433386    -2.0633889     0.3996946
22
083_C10H12_0-2-10-8 (180,) energy =    -388.2810270
C           1.6633624    -1.3406698    -0.8194853
H           2.0604920    -1.3983101    -1.8262967
C           2.3664494    -0.7822094     0.1817185
H           1.8711645    -0.7775942     1.1547314
C           6.2087941     1.0853138     0.6524270
H           7.1750743     1.5611560     0.7964597
C           5.3237538     0.9330928     1.7178612
H           5.5852193     1.2879361     2.7111460
C           4.0953673     0.3197016     1.4988011
H           3.4064467     0.2023333     2.3321518
C           3.7010179    -0.1606006     0.2323511
C           4.6088406    -0.0020627    -0.8498909
C           4.3147412    -0.4695188    -2.2547669
H           5.1552965    -0.2428416    -2.9178789
H           3.4240213     0.0179475    -2.6703094
H           4.1412034    -1.5519638    -2.2979611
C           5.8407267     0.6183914    -0.6084120
H           6.5306941     0.7365589    -1.4409534
C           0.2911925    -1.9245574    -0.6375738
H           0.2718087    -2.9886345    -0.9117887
H          -0.4434326    -1.4245031    -1.2841669
H          -0.0536468    -1.8356357     0.3982174
