24
015_C9H11N3O_1-0-9-8 (-165,) energy =    -589.0726492
C           3.7537165     1.7573828    -0.2640432
N           2.8744658     2.4285126     0.4956206
C           1.5983015     2.0745454     0.3639557
C           1.1700485     1.0838645    -0.5223108
C           2.1662930     0.4854307    -1.2846870
N           3.4591809     0.8029362    -1.1605727
C           7.9943992     2.5375170     0.0196387
C           7.2860351     2.4584866    -1.3314926
C           6.0165253     1.6194800    -1.2228463
N           5.1113660     2.1109418    -0.1548854
C           5.6503102     2.4945752     1.0984906
O           5.0463960     2.3805081     2.1449438
C           7.0363443     3.1334763     1.0553960
H           0.8868284     2.6185188     0.9840684
H           0.1254261     0.8100840    -0.6201329
H           1.9321729    -0.2831397    -2.0200252
H           8.3022105     1.5303504     0.3329835
H           8.9066380     3.1421803    -0.0432332
H           7.0309113     3.4685387    -1.6792670
H           7.9330349     2.0076896    -2.0936131
H           5.4578529     1.6391290    -2.1587824
H           6.2684835     0.5671496    -1.0323744
H           7.4336700     3.0783841     2.0719446
H           6.8733325     4.1980674     0.8306132
24
015_C9H11N3O_1-0-9-8 (-150,) energy =    -589.0728996
C           3.7592479     1.7251390    -0.2596005
N           2.8701761     2.5295575     0.3399668
C           1.5902300     2.1851351     0.2079435
C           1.1749006     1.0803181    -0.5379712
C           2.1848200     0.3529576    -1.1578925
N           3.4799479     0.6574396    -1.0206031
C           7.9855796     2.5214512    -0.0012537
C           7.2576670     2.5353580    -1.3448672
C           6.0009112     1.6735393    -1.2739130
N           5.1218629     2.0695407    -0.1498325
C           5.6433927     2.4600948     1.0973377
O           5.0036519     2.3834462     2.1285277
C           7.0500196     3.0541577     1.0881355
H           0.8677383     2.8328969     0.7026492
H           0.1280494     0.8176633    -0.6431669
H           1.9596421    -0.5095110    -1.7835458
H           8.2923766     1.4939406     0.2382374
H           8.9007405     3.1237879    -0.0392799
H           6.9862759     3.5653243    -1.6127293
H           7.8974192     2.1491206    -2.1473824
H           5.4170412     1.7604987    -2.1923840
H           6.2722491     0.6140839    -1.1745164
H           7.4542070     2.9076113     2.0931779
H           6.9150591     4.1380462     0.9571637
24
015_C9H11N3O_1-0-9-8 (-135,) energy =    -589.0717860
C           3.7705110     1.7127778    -0.2475935
N           2.8788698     2.6154812     0.1796814
C           1.5965091     2.2704035     0.0577859
C           1.1892393     1.0680428    -0.5219207
C           2.2062275     0.2396931    -0.9849527
N           3.5011710     0.5461944    -0.8466785
C           7.9847129     2.4962250    -0.0107971
C           7.2472324     2.6217198    -1.3440079
C           5.9824512     1.7684247    -1.3264699
N           5.1388986     2.0587926    -0.1473717
C           5.6482047     2.4376263     1.0973576
O           4.9800421     2.3808421     2.1147548
C           7.0740046     2.9828099     1.1205016
H           0.8688623     2.9961373     0.4180591
H           0.1420182     0.8052602    -0.6243318
H           1.9865698    -0.7054145    -1.4792261
H           8.2623289     1.4462125     0.1557995
H           8.9174560     3.0721130    -0.0183256
H           6.9845531     3.6722026    -1.5273080
H           7.8759975     2.2930140    -2.1800266
H           5.3778452     1.9547644    -2.2184658
H           6.2446613     0.7023495    -1.3378203
H           7.4784538     2.7523239     2.1099223
H           6.9763443     4.0771057     1.0704877
24
015_C9H11N3O_1-0-9-8 (-120,) energy =    -589.0701909
C           3.7589636     1.7068061    -0.2507179
N           2.8597620     2.6685028    -0.0187318
C           1.5788439     2.3047065    -0.1184797
C           1.1891102     1.0172479    -0.4863805
C           2.2177556     0.1210430    -0.7606539
N           3.5085846     0.4526426    -0.6406165
C           7.9646358     2.4242016    -0.0085334
C           7.2399612     2.6847820    -1.3297843
C           5.9368308     1.8914822    -1.3836120
N           5.1299673     2.0735268    -0.1619518
C           5.6308351     2.3981622     1.0913583
O           4.9383152     2.3356091     2.0952170
C           7.0768829     2.8806757     1.1534930
H           0.8420193     3.0799627     0.0857132
H           0.1449547     0.7364773    -0.5724754
H           2.0104205    -0.8980026    -1.0833093
H           8.1842471     1.3515949     0.0841249
H           8.9272170     2.9477518     0.0229159
H           7.0263388     3.7573576    -1.4288909
H           7.8572394     2.3957478    -2.1885904
H           5.3293480     2.2145342    -2.2359142
H           6.1472421     0.8227073    -1.5238000
H           7.4677626     2.5671331     2.1256404
H           7.0314376     3.9790043     1.1761442
24
015_C9H11N3O_1-0-9-8 (-105,) energy =    -589.0689780
C           3.7404602     1.7337228    -0.2570162
N           2.8355591     2.7154467    -0.2543746
C           1.5575493     2.3309960    -0.3363969
C           1.1839232     0.9933271    -0.4484275
C           2.2218346     0.0662328    -0.4903830
N           3.5071786     0.4256624    -0.3954907
C           7.9418348     2.3823389    -0.0172431
C           7.2235368     2.7740737    -1.3097828
C           5.8907915     2.0365381    -1.4192206
N           5.1108128     2.1265755    -0.1741849
C           5.6163985     2.3575079     1.0907960
O           4.9102108     2.2653152     2.0853537
C           7.0788440     2.7802775     1.1847544
H           0.8137070     3.1258942    -0.3215080
H           0.1438396     0.6925495    -0.5150687
H           2.0257232    -0.9988711    -0.6020428
H           8.1184901     1.2979031    -0.0100182
H           8.9248803     2.8631860     0.0467968
H           7.0475951     3.8578997    -1.3200119
H           7.8280270     2.5348062    -2.1925225
H           5.2846833     2.4640368    -2.2264955
H           6.0603813     0.9777554    -1.6625770
H           7.4613026     2.3721229     2.1248391
H           7.0781794     3.8735922     1.2989423
24
015_C9H11N3O_1-0-9-8 (-90,) energy =    -589.0687404
C           3.7405983     1.7534275    -0.2658977
N           2.8411188     2.7100302    -0.5051599
C           1.5670710     2.3081086    -0.5831952
C           1.1942007     0.9752283    -0.4304327
C           2.2287597     0.0661843    -0.2197825
N           3.5092874     0.4434078    -0.1438322
C           7.9436774     2.3666604    -0.0632783
C           7.2060110     2.8766548    -1.3027807
C           5.8606602     2.1685407    -1.4428469
N           5.1043613     2.1725105    -0.1810221
C           5.6377577     2.2907995     1.0877269
O           4.9435806     2.1528160     2.0854873
C           7.1116518     2.6718408     1.1866414
H           0.8277943     3.0841325    -0.7744479
H           0.1576427     0.6603769    -0.4863779
H           2.0325211    -0.9993524    -0.1127026
H           8.1035462     1.2832683    -0.1526879
H           8.9352575     2.8264465     0.0207914
H           7.0459770     3.9596959    -1.2191567
H           7.7886755     2.7034125    -2.2151211
H           5.2440017     2.6629740    -2.2023271
H           6.0139273     1.1282294    -1.7679182
H           7.5025413     2.1726641     2.0782576
H           7.1379191     3.7497410     1.4002120
24
015_C9H11N3O_1-0-9-8 (-75,) energy =    -589.0693058
C           3.7466177     1.7340066    -0.2675751
N           2.8827628     2.6478944    -0.7181662
C           1.6073947     2.2539165    -0.8102712
C           1.1938800     0.9750195    -0.4474251
C           2.1931282     0.1047508    -0.0152497
N           3.4763181     0.4687280     0.0657039
C           7.9485003     2.3620339    -0.1021490
C           7.1805551     2.9626679    -1.2807575
C           5.8373376     2.2570367    -1.4442242
N           5.1062292     2.1534745    -0.1699967
C           5.6642141     2.2184382     1.0956582
O           4.9887540     2.0622103     2.1019733
C           7.1459154     2.5744494     1.1848306
H           0.9000240     2.9939325    -1.1809524
H           0.1551809     0.6689271    -0.5107384
H           1.9651371    -0.9219344     0.2664507
H           8.1043143     1.2883757    -0.2761771
H           8.9425798     2.8142598    -0.0073059
H           7.0168498     4.0348404    -1.1091982
H           7.7419293     2.8653831    -2.2173476
H           5.1977513     2.8008979    -2.1477594
H           5.9937130     1.2459385    -1.8505699
H           7.5502271     2.0033337     2.0261480
H           7.1890268     3.6311761     1.4836169
24
015_C9H11N3O_1-0-9-8 (-60,) energy =    -589.0702533
C           3.7462183     1.6879861    -0.2601043
N           2.9300321     2.5357574    -0.8961541
C           1.6517299     2.1570494    -0.9993322
C           1.1819957     0.9627258    -0.4600470
C           2.1331714     0.1545904     0.1612664
N           3.4204600     0.4975160     0.2530020
C           7.9460449     2.3710503    -0.1330224
C           7.1383276     3.0421882    -1.2441833
C           5.8097651     2.3172198    -1.4317203
N           5.1041849     2.0955892    -0.1546757
C           5.6829438     2.1465912     1.1079025
O           5.0276711     1.9918827     2.1257764
C           7.1716331     2.4815606     1.1827486
H           0.9873256     2.8421327    -1.5235643
H           0.1399440     0.6707871    -0.5327521
H           1.8616679    -0.8093357     0.5887284
H           8.1119680     1.3152681    -0.3879952
H           8.9359028     2.8304267    -0.0289823
H           6.9552866     4.0940319    -0.9866992
H           7.6779568     3.0309659    -2.1983449
H           5.1404966     2.8909666    -2.0794228
H           5.9851561     1.3426955    -1.9121976
H           7.5895687     1.8411361     1.9659688
H           7.2302064     3.5086727     1.5683382
24
015_C9H11N3O_1-0-9-8 (-45,) energy =    -589.0709349
C           3.7453992     1.6761580    -0.2299041
N           2.9731766     2.4220618    -1.0304696
C           1.6944708     2.0475908    -1.1361297
C           1.1755861     0.9580608    -0.4433001
C           2.0833684     0.2450669     0.3398109
N           3.3702331     0.5810289     0.4412864
C           7.9433370     2.3674242    -0.1566951
C           7.1105597     3.1172797    -1.1953056
C           5.7764897     2.4089230    -1.4020381
N           5.1026192     2.0722673    -0.1285731
C           5.7040717     2.1253566     1.1306296
O           5.0689802     1.9964024     2.1626371
C           7.2051534     2.4097799     1.1823971
H           1.0699876     2.6509397    -1.7932516
H           0.1331778     0.6695232    -0.5225406
H           1.7752291    -0.6404485     0.8937263
H           8.0854899     1.3276823    -0.4819582
H           8.9424632     2.8061628    -0.0526562
H           6.9395974     4.1486888    -0.8582189
H           7.6232090     3.1746314    -2.1625426
H           5.0893434     3.0284863    -1.9825911
H           5.9389655     1.4772812    -1.9639422
H           7.6214097     1.7045932     1.9094493
H           7.3055396     3.4043981     1.6371756
24
015_C9H11N3O_1-0-9-8 (-30,) energy =    -589.0710229
C           3.7448678     1.6909351    -0.2130959
N           3.0151287     2.2924481    -1.1634276
C           1.7436686     1.8960468    -1.2756561
C           1.1869060     0.9233768    -0.4525420
C           2.0539994     0.3467434     0.4769779
N           3.3312478     0.7054896     0.5958920
C           7.9304049     2.3252209    -0.1908470
C           7.1054868     3.1816981    -1.1486373
C           5.7341750     2.5517353    -1.3689687
N           5.0939439     2.0973291    -0.1111008
C           5.7159590     2.1562316     1.1465303
O           5.0959106     2.0841174     2.1906610
C           7.2346887     2.3327680     1.1704417
H           1.1572011     2.3840639    -2.0528035
H           0.1508954     0.6159590    -0.5424720
H           1.7184429    -0.4492793     1.1403818
H           8.0024549     1.3007873    -0.5807655
H           8.9552539     2.7020568    -0.0959555
H           6.9948972     4.1930929    -0.7339751
H           7.5915093     3.2879019    -2.1253612
H           5.0543847     3.2530411    -1.8562526
H           5.8307600     1.6812653    -2.0328113
H           7.6157731     1.5508786     1.8367377
H           7.4199828     3.2832078     1.6873818
24
015_C9H11N3O_1-0-9-8 (-15,) energy =    -589.0706796
C           3.7437772     1.6918604    -0.1967680
N           3.0741995     2.1241030    -1.2773858
C           1.8126579     1.7008777    -1.4028618
C           1.2065459     0.8607567    -0.4762922
C           2.0167063     0.4450849     0.5824668
N           3.2803101     0.8361646     0.7272461
C           7.9023068     2.2625644    -0.2495098
C           7.0929728     3.2218818    -1.1182120
C           5.6799620     2.6830967    -1.3274923
N           5.0814518     2.1167262    -0.0927468
C           5.7331983     2.1704319     1.1586266
O           5.1398762     2.1468650     2.2177907
C           7.2608183     2.2414689     1.1375395
H           1.2767017     2.0536613    -2.2829891
H           0.1793576     0.5298272    -0.5816456
H           1.6432883    -0.2458709     1.3373745
H           7.8917643     1.2590857    -0.6958305
H           8.9519780     2.5697193    -0.1796522
H           7.0567065     4.2077299    -0.6344335
H           7.5476793     3.3688987    -2.1045453
H           5.0157437     3.4645055    -1.7034077
H           5.6912072     1.8909751    -2.0866073
H           7.6061894     1.3953543     1.7430072
H           7.5328150     3.1435043     1.6999171
24
015_C9H11N3O_1-0-9-8 (0,) energy =    -589.0712714
C           3.7113810     1.6211459    -0.2422216
N           3.1365464     1.7685689    -1.4473047
C           1.8338107     1.4805085    -1.5248162
C           1.0921091     1.0520584    -0.4304738
C           1.7881001     0.9802730     0.7780260
N           3.0806775     1.2736190     0.8914064
C           7.9327509     2.5959216    -0.2086478
C           6.9363618     3.3576741    -1.0806786
C           5.7150996     2.4956275    -1.3856503
N           5.0664904     1.9874809    -0.1491700
C           5.9011941     1.4201577     0.8545853
O           5.5812424     0.4697404     1.5355491
C           7.2313555     2.1369953     1.0739844
H           1.3765724     1.6033856    -2.5057522
H           0.0375413     0.8113745    -0.5051190
H           1.2835107     0.6929627     1.6998482
H           8.3104651     1.7223322    -0.7576804
H           8.8027539     3.2158470     0.0374574
H           6.6166712     4.2751947    -0.5686916
H           7.3913925     3.6601454    -2.0315988
H           4.9666463     3.0640984    -1.9351858
H           5.9953401     1.6449183    -2.0231635
H           7.8517658     1.4623141     1.6689219
H           7.0091554     3.0133775     1.7008139
24
015_C9H11N3O_1-0-9-8 (15,) energy =    -589.0728460
C           3.7107549     1.6260797    -0.2376180
N           3.1883184     1.5779106    -1.4724484
C           1.8863979     1.2832432    -1.5532378
C           1.1047602     1.0249271    -0.4333484
C           1.7549286     1.1343081     0.7978781
N           3.0432795     1.4480305     0.9127701
C           7.9261569     2.5604119    -0.2402024
C           6.9235927     3.4062771    -1.0233363
C           5.6801747     2.5883146    -1.3585094
N           5.0700254     1.9814651    -0.1506690
C           5.8912353     1.3997131     0.8441011
O           5.5292629     0.4769490     1.5452237
C           7.2599539     2.0471031     1.0397817
H           1.4656175     1.2515319    -2.5572795
H           0.0525471     0.7741775    -0.5093445
H           1.2160972     0.9832998     1.7324596
H           8.2519327     1.7115897    -0.8572130
H           8.8258952     3.1359075     0.0068087
H           6.6371394     4.2874504    -0.4336543
H           7.3589109     3.7719065    -1.9611070
H           4.9203401     3.2130374    -1.8293162
H           5.9258786     1.7983453    -2.0812914
H           7.8761732     1.3140107     1.5663115
H           7.1013199     2.8883582     1.7308264
24
015_C9H11N3O_1-0-9-8 (30,) energy =    -589.0727654
C           3.7259994     1.6319258    -0.2464664
N           3.2477045     1.3912041    -1.4752051
C           1.9455241     1.0962814    -1.5542331
C           1.1274288     1.0141764    -0.4326888
C           1.7382991     1.3013124     0.7892854
N           3.0260441     1.6264907     0.8960397
C           7.9302039     2.5627767    -0.2566053
C           6.9189772     3.4679053    -0.9593857
C           5.6721357     2.6728960    -1.3345294
N           5.0934631     1.9690501    -0.1675908
C           5.8955954     1.3863712     0.8281906
O           5.4952024     0.4947456     1.5523012
C           7.2935959     1.9743193     1.0060075
H           1.5558404     0.9123024    -2.5543705
H           0.0758463     0.7591375    -0.5043689
H           1.1700759     1.2888475     1.7183631
H           8.2312039     1.7537734    -0.9364277
H           8.8421326     3.1130774     0.0030042
H           6.6430424     4.3026832    -0.3011878
H           7.3418375     3.9011805    -1.8736534
H           4.8983700     3.3299380    -1.7375202
H           5.9089832     1.9465594    -2.1232535
H           7.9060188     1.1871003     1.4534974
H           7.1901555     2.7628916     1.7659990
24
015_C9H11N3O_1-0-9-8 (45,) energy =    -589.0715011
C           3.7248365     1.6343939    -0.2595850
N           3.2961051     1.1921777    -1.4479917
C           1.9970600     0.8824021    -1.5267551
C           1.1392289     0.9786646    -0.4356329
C           1.7033958     1.4601342     0.7461224
N           2.9879249     1.8067951     0.8437653
C           7.9194727     2.5351070    -0.2886232
C           6.9166995     3.5153446    -0.8975970
C           5.6408615     2.7792171    -1.2955702
N           5.0968178     1.9762744    -0.1800432
C           5.8825230     1.3720840     0.8027867
O           5.4485208     0.4983493     1.5334156
C           7.3082670     1.8947096     0.9613235
H           1.6437681     0.5350251    -2.4964198
H           0.0911591     0.7078974    -0.5029273
H           1.1025650     1.5887818     1.6451721
H           8.1655916     1.7589026    -1.0263812
H           8.8596684     3.0377828    -0.0335289
H           6.6796515     4.3048820    -0.1719841
H           7.3278734     4.0048078    -1.7884603
H           4.8657548     3.4882047    -1.6009314
H           5.8333165     2.1270203    -2.1576812
H           7.9054549     1.0586720     1.3356936
H           7.2663616     2.6357370     1.7728270
24
015_C9H11N3O_1-0-9-8 (60,) energy =    -589.0699441
C           3.7443490     1.6695736    -0.2828253
N           3.3795602     1.0229994    -1.3944052
C           2.0874946     0.6857667    -1.4803524
C           1.1754972     0.9653394    -0.4668333
C           1.6754876     1.6546327     0.6371825
N           2.9549436     2.0257691     0.7346291
C           7.9310241     2.5118030    -0.3394091
C           6.9555149     3.5743710    -0.8473340
C           5.6306888     2.9274175    -1.2434596
N           5.1172092     2.0330888    -0.1890894
C           5.8893992     1.3816437     0.7613722
O           5.4229542     0.5111620     1.4801324
C           7.3404166     1.8327816     0.9002352
H           1.7842090     0.1672290    -2.3884465
H           0.1331420     0.6734839    -0.5365976
H           1.0298590     1.9315975     1.4690422
H           8.1052178     1.7673621    -1.1285993
H           8.9056593     2.9532157    -0.1007997
H           6.7825509     4.3229992    -0.0627853
H           7.3583805     4.1038331    -1.7187578
H           4.8720584     3.6959214    -1.4281719
H           5.7488880     2.3584011    -2.1757659
H           7.9120903     0.9513072     1.2043175
H           7.3642336     2.5274611     1.7520554
24
015_C9H11N3O_1-0-9-8 (75,) energy =    -589.0688591
C           3.7350452     1.6649147    -0.2605572
N           3.4352152     0.8225580    -1.2530791
C           2.1506107     0.4609565    -1.3464432
C           1.1793065     0.9269489    -0.4641019
C           1.6122704     1.8218543     0.5118764
N           2.8886449     2.2068690     0.6179150
C           7.9108043     2.4916443    -0.3715177
C           6.9441384     3.6108570    -0.7624649
C           5.5855696     3.0288342    -1.1463320
N           5.1046451     2.0555099    -0.1527848
C           5.8876000     1.3330395     0.7266771
O           5.4142588     0.4379841     1.4131363
C           7.3537951     1.7377969     0.8407893
H           1.9000223    -0.2257526    -2.1532904
H           0.1416792     0.6199246    -0.5400898
H           0.9180499     2.2524793     1.2315683
H           8.0366960     1.8022651    -1.2176914
H           8.9039222     2.8950426    -0.1418117
H           6.8236060     4.3047409     0.0800354
H           7.3263580     4.1924393    -1.6095656
H           4.8379832     3.8270802    -1.2229146
H           5.6451817     2.5402634    -2.1298754
H           7.9131761     0.8222210     1.0540349
H           7.4324881     2.3655187     1.7396976
24
015_C9H11N3O_1-0-9-8 (90,) energy =    -589.0687857
C           3.7425754     1.6647612    -0.2345139
N           3.4911301     0.6509691    -1.0675857
C           2.2095594     0.2854505    -1.1735245
C           1.1889918     0.9315769    -0.4788692
C           1.5727102     2.0039234     0.3219736
N           2.8499255     2.3824886     0.4506120
C           7.9071181     2.5052914    -0.4154777
C           6.9335454     3.6561507    -0.6765618
C           5.5581958     3.1086854    -1.0498093
N           5.1076792     2.0690936    -0.1113718
C           5.9196210     1.2807598     0.6812078
O           5.4627563     0.3567594     1.3397754
C           7.3953815     1.6604807     0.7559948
H           1.9990284    -0.5469457    -1.8429713
H           0.1520428     0.6261700    -0.5692577
H           0.8399521     2.5832505     0.8812037
H           7.9913441     1.8844506    -1.3180517
H           8.9125028     2.8840352    -0.1974996
H           6.8499891     4.2812781     0.2222983
H           7.2852360     4.3017374    -1.4898031
H           4.8107328     3.9102881    -1.0419312
H           5.5826474     2.6893753    -2.0672624
H           7.9509801     0.7245603     0.8672504
H           7.5252251     2.2099524     1.6989841
24
015_C9H11N3O_1-0-9-8 (105,) energy =    -589.0694613
C           3.7455321     1.6481177    -0.2417743
N           3.4985356     0.5146397    -0.9051748
C           2.2126566     0.1672435    -1.0094544
C           1.1807063     0.9510135    -0.4957794
C           1.5613375     2.1384970     0.1230596
N           2.8432739     2.4966497     0.2593174
C           7.8996300     2.5332477    -0.4458458
C           6.9115810     3.6915010    -0.5929806
C           5.5347441     3.1587609    -0.9787507
N           5.1096727     2.0426909    -0.1163175
C           5.9454537     1.2302847     0.6323038
O           5.5112798     0.2926306     1.2844398
C           7.4249498     1.6040984     0.6752585
H           2.0066782    -0.7632158    -1.5360312
H           0.1396306     0.6612113    -0.5891843
H           0.8227028     2.8280525     0.5284627
H           7.9593989     1.9807081    -1.3936860
H           8.9095775     2.9010211    -0.2303098
H           6.8429796     4.2432364     0.3539872
H           7.2378070     4.4029079    -1.3606185
H           4.7775339     3.9454518    -0.8957468
H           5.5466703     2.8172424    -2.0252315
H           7.9802960     0.6614043     0.6971405
H           7.5913989     2.0793437     1.6520540
24
015_C9H11N3O_1-0-9-8 (120,) energy =    -589.0703906
C           3.7497100     1.6264066    -0.2729566
N           3.4904763     0.4070923    -0.7564949
C           2.1998936     0.0790999    -0.8519854
C           1.1726869     0.9591632    -0.5131790
C           1.5673525     2.2214783    -0.0792900
N           2.8530510     2.5646973     0.0516009
C           7.8972229     2.5604512    -0.4662341
C           6.8956383     3.7145332    -0.5120764
C           5.5221377     3.1956107    -0.9242720
N           5.1142143     2.0049993    -0.1526266
C           5.9661911     1.1897543     0.5845183
O           5.5514366     0.2516300     1.2454655
C           7.4494032     1.5558205     0.5981504
H           1.9853125    -0.9185363    -1.2318949
H           0.1275148     0.6833230    -0.6019010
H           0.8364700     2.9857989     0.1799885
H           7.9420981     2.0753812    -1.4510640
H           8.9085798     2.9207584    -0.2448670
H           6.8328766     4.1907197     0.4756483
H           7.2028769     4.4878094    -1.2257579
H           4.7549522     3.9604761    -0.7751376
H           5.5311664     2.9357729    -1.9936613
H           7.9973949     0.6103239     0.5342126
H           7.6518104     1.9554731     1.6012735
24
015_C9H11N3O_1-0-9-8 (135,) energy =    -589.0709900
C           3.7697467     1.6187489    -0.2741381
N           3.4951590     0.3428569    -0.5720996
C           2.2025808     0.0286889    -0.6662249
C           1.1829074     0.9672338    -0.5062077
C           1.5928571     2.2728011    -0.2547927
N           2.8801715     2.6094919    -0.1288455
C           7.9110421     2.5721179    -0.4624584
C           6.9130431     3.7272532    -0.4014633
C           5.5301272     3.2432694    -0.8229699
N           5.1337701     1.9828630    -0.1557242
C           5.9960595     1.1698063     0.5852201
O           5.5943052     0.2452609     1.2693296
C           7.4862261     1.5091377     0.5519174
H           1.9789581    -1.0115310    -0.8984996
H           0.1355682     0.6996519    -0.5932790
H           0.8721229     3.0813455    -0.1423650
H           7.9221666     2.1503576    -1.4768595
H           8.9310059     2.9125617    -0.2496172
H           6.8754489     4.1305682     0.6196142
H           7.2044211     4.5513042    -1.0630670
H           4.7665364     3.9898192    -0.5947377
H           5.5157220     3.0765043    -1.9100780
H           8.0091275     0.5586050     0.4019963
H           7.7413735     1.8345196     1.5692838
24
015_C9H11N3O_1-0-9-8 (150,) energy =    -589.0709896
C           3.7872758     1.6084516    -0.2577878
N           3.5093729     0.3010173    -0.3636334
C           2.2226109    -0.0163153    -0.4935029
C           1.2066279     0.9392750    -0.5521267
C           1.6206777     2.2649337    -0.4865334
N           2.9020227     2.6129931    -0.3339999
C           7.8956232     2.5546294    -0.5209227
C           6.9363013     3.7255970    -0.3222678
C           5.5122754     3.3053946    -0.6726685
N           5.1412936     1.9809684    -0.1172244
C           6.0246215     1.1737796     0.6214640
O           5.6445767     0.2803546     1.3534686
C           7.5194373     1.4632362     0.4808931
H           1.9994746    -1.0794800    -0.5732212
H           0.1633802     0.6656016    -0.6643927
H           0.9073060     3.0851444    -0.5535005
H           7.8119227     2.1789357    -1.5497526
H           8.9384842     2.8597362    -0.3773832
H           6.9851731     4.0660079     0.7211881
H           7.2006484     4.5838324    -0.9507476
H           4.7877623     4.0372758    -0.3107823
H           5.3999048     3.2559053    -1.7643970
H           7.9889292     0.5016327     0.2450323
H           7.8722318     1.7302879     1.4854153
24
015_C9H11N3O_1-0-9-8 (165,) energy =    -589.0704903
C           3.7837964     1.5968164    -0.2649050
N           3.4739326     0.2945905    -0.1725648
C           2.1908651    -0.0157644    -0.3394241
C           1.2053807     0.9342213    -0.6154060
C           1.6511961     2.2455268    -0.7319771
N           2.9299083     2.5920468    -0.5569796
C           7.8523051     2.5654016    -0.5856481
C           6.9222530     3.7306173    -0.2589305
C           5.4729763     3.3481169    -0.5492331
N           5.1289970     1.9743725    -0.1025043
C           6.0378741     1.1693436     0.6215064
O           5.6895976     0.2933812     1.3861092
C           7.5264480     1.4302638     0.3843193
H           1.9442974    -1.0740848    -0.2621938
H           0.1639660     0.6637980    -0.7496909
H           0.9659702     3.0572630    -0.9727531
H           7.6946981     2.2446321    -1.6241537
H           8.9061384     2.8526671    -0.4966944
H           7.0400714     4.0041250     0.7987057
H           7.1589196     4.6252438    -0.8461594
H           4.7816034     4.0470342    -0.0726892
H           5.2801201     3.4068408    -1.6273523
H           7.9479338     0.4716285     0.0597035
H           7.9624990     1.6309382     1.3708784
24
015_C9H11N3O_1-0-9-8 (180,) energy =    -589.0706691
C           3.7450189     1.7720791    -0.2716121
N           2.8844106     2.2801914     0.6243911
C           1.6074180     1.9383293     0.4729559
C           1.1559326     1.1047652    -0.5517191
C           2.1328918     0.6555059    -1.4326137
N           3.4244239     0.9704087    -1.3020797
C           7.9981904     2.5662614     0.0236456
C           7.3020338     2.3697590    -1.3214143
C           6.0348618     1.5363545    -1.1573399
N           5.1043583     2.1132833    -0.1515874
C           5.6535241     2.5303156     1.0950746
O           5.0832730     2.4131798     2.1578638
C           7.0170553     3.2131518     1.0061146
H           0.9146392     2.3568613     1.2022532
H           0.1116745     0.8332755    -0.6585735
H           1.8826658     0.0123824    -2.2754055
H           8.3266910     1.5931970     0.4142347
H           8.8963954     3.1865347    -0.0779214
H           7.0439511     3.3451358    -1.7552684
H           7.9586309     1.8611553    -2.0376926
H           5.4930838     1.4666794    -2.0986186
H           6.2880919     0.5078932    -0.8622262
H           7.4110469     3.2486729     2.0246892
H           6.8221684     4.2503965     0.6953298
