22
043_C11H9NO_1-0-11-10 (-165,) energy =    -554.5591282
C           2.4619963    -1.3463223    -0.3333869
C           1.1229432    -0.9409639    -0.1346985
O           0.8512843     0.3657654     0.1852610
H          -0.1109350     0.4726486     0.2442206
C           0.0704205    -1.8522630    -0.2786874
C           0.3163047    -3.1777765    -0.6216541
C           1.6297989    -3.6013193    -0.8282434
C           2.6723972    -2.6925707    -0.6857719
C           5.9825039     1.0232342    -0.0108592
C           5.9115381    -0.2223405    -0.6360729
N           4.7946417    -0.9424699    -0.7303764
C           3.6523810    -0.4563271    -0.1991293
C           3.6344335     0.7870382     0.4599853
C           4.8114695     1.5262945     0.5501561
H          -0.9508037    -1.5073124    -0.1212375
H          -0.5145745    -3.8701283    -0.7262947
H           1.8409627    -4.6322404    -1.0966092
H           3.6977555    -3.0022070    -0.8501769
H           6.9199213     1.5693814     0.0342255
H           6.8001585    -0.6643716    -1.0858186
H           2.7188726     1.1616073     0.8939647
H           4.8085665     2.4868981     1.0590672
22
043_C11H9NO_1-0-11-10 (-150,) energy =    -554.5590099
C           2.4732537    -1.3715444    -0.3088891
C           1.1371340    -0.9267651    -0.2189026
O           0.8949540     0.4055758     0.0019384
H          -0.0637278     0.5509036    -0.0215274
C           0.0749370    -1.8255025    -0.3654337
C           0.3162284    -3.1749698    -0.6085270
C           1.6296230    -3.6347245    -0.7130051
C           2.6824314    -2.7358397    -0.5709565
C           5.9549344     1.0439560    -0.0435018
C           5.8545041    -0.1209572    -0.8044066
N           4.7486448    -0.8636680    -0.8840841
C           3.6582783    -0.4767143    -0.1909896
C           3.6706120     0.6792879     0.6094619
C           4.8324859     1.4426390     0.6801328
H          -0.9469612    -1.4555200    -0.2928954
H          -0.5209153    -3.8592215    -0.7168774
H           1.8322548    -4.6841416    -0.9052644
H           3.7091497    -3.0710032    -0.6682418
H           6.8799759     1.6122239    -0.0203271
H           6.7059514    -0.4750734    -1.3846369
H           2.7861376     0.9673423     1.1619438
H           4.8592446     2.3370593     1.2973319
22
043_C11H9NO_1-0-11-10 (-135,) energy =    -554.5577462
C           2.4815409    -1.3933863    -0.2704820
C           1.1569532    -0.9138417    -0.2939847
O           0.9502906     0.4351677    -0.1588440
H           0.0008537     0.6116780    -0.2485230
C           0.0842593    -1.7973479    -0.4533388
C           0.3120284    -3.1638445    -0.6012178
C           1.6177654    -3.6559844    -0.5985401
C           2.6818580    -2.7700327    -0.4475559
C           5.9188921     1.0792965    -0.0752613
C           5.7756012    -0.0008834    -0.9459457
N           4.6845294    -0.7704447    -1.0054003
C           3.6648139    -0.4947732    -0.1700033
C           3.7188725     0.5726487     0.7413183
C           4.8614234     1.3656948     0.7875275
H          -0.9318653    -1.4056317    -0.4686382
H          -0.5318721    -3.8377408    -0.7217318
H           1.8058013    -4.7185883    -0.7199443
H           3.7050494    -3.1310444    -0.4706478
H           6.8282619     1.6728937    -0.0765980
H           6.5761319    -0.2602325    -1.6377897
H           2.8770846     0.7701269     1.3942727
H           4.9253259     2.1938728     1.4886551
22
043_C11H9NO_1-0-11-10 (-120,) energy =    -554.5555175
C           2.4885478    -1.4055662    -0.2548038
C           1.1821742    -0.8996782    -0.3866711
O           1.0149001     0.4602450    -0.3510705
H           0.0760018     0.6601609    -0.4890147
C           0.0974004    -1.7686302    -0.5426521
C           0.3018828    -3.1468795    -0.5824625
C           1.5925095    -3.6653615    -0.4746520
C           2.6692901    -2.7920661    -0.3273995
C           5.8924807     1.1130692    -0.1012002
C           5.6847428     0.1400533    -1.0783142
N           4.6065968    -0.6509207    -1.1268591
C           3.6754180    -0.5057740    -0.1673130
C           3.7939184     0.4504292     0.8527615
C           4.9194991     1.2679417     0.8861697
H          -0.9070027    -1.3595034    -0.6417940
H          -0.5500483    -3.8106350    -0.7029811
H           1.7603362    -4.7374991    -0.5140146
H           3.6826749    -3.1781074    -0.2693994
H           6.7869343     1.7287997    -0.1176769
H           6.4180087    -0.0105294    -1.8696606
H           3.0117200     0.5435667     1.5985887
H           5.0356932     2.0126917     1.6693104
22
043_C11H9NO_1-0-11-10 (-105,) energy =    -554.5533615
C           2.4861692    -1.4064327    -0.2700739
C           1.1977974    -0.8953756    -0.5045167
O           1.0612415     0.4648724    -0.5892145
H           0.1330466     0.6728586    -0.7780520
C           0.1058175    -1.7592981    -0.6353865
C           0.2881059    -3.1387254    -0.5450989
C           1.5621644    -3.6627027    -0.3281431
C           2.6470755    -2.7938728    -0.2032488
C           5.8631258     1.1506103    -0.1053997
C           5.5700554     0.3217601    -1.1880141
N           4.5024071    -0.4840148    -1.2424624
C           3.6725504    -0.4987335    -0.1854951
C           3.8812920     0.3037901     0.9448776
C           4.9946216     1.1386126     0.9855151
H          -0.8861265    -1.3474243    -0.8151621
H          -0.5685462    -3.7993023    -0.6487073
H           1.7123919    -4.7362440    -0.2639317
H           3.6473676    -3.1903722    -0.0527090
H           6.7443081     1.7852570    -0.1209474
H           6.2219983     0.3044137    -2.0605252
H           3.1776641     0.2660478     1.7705812
H           5.1807150     1.7679741     1.8519662
22
043_C11H9NO_1-0-11-10 (-90,) energy =    -554.5523975
C           2.4775853    -1.3896364    -0.3025370
C           1.2049491    -0.8956742    -0.6367024
O           1.0873119     0.4517543    -0.8445890
H           0.1711937     0.6501059    -1.0931841
C           0.1125059    -1.7628550    -0.7369301
C           0.2794035    -3.1280832    -0.5057762
C           1.5347733    -3.6344668    -0.1720494
C           2.6200864    -2.7612320    -0.0751000
C           5.8450441     1.1787591    -0.0959138
C           5.4342552     0.5300511    -1.2608240
N           4.3689944    -0.2765013    -1.3312296
C           3.6557120    -0.4691359    -0.2090321
C           3.9892409     0.1384710     1.0089595
C           5.1018493     0.9749257     1.0655290
H          -0.8675043    -1.3655527    -0.9970002
H          -0.5769960    -3.7920185    -0.5875573
H           1.6708383    -4.6967353     0.0076402
H           3.6050151    -3.1456615     0.1764346
H           6.7203164     1.8217460    -0.1031579
H           5.9894647     0.6628051    -2.1885537
H           3.3808925    -0.0463196     1.8890390
H           5.3821113     1.4580161     1.9980486
22
043_C11H9NO_1-0-11-10 (-75,) energy =    -554.5528024
C           2.4625562    -1.3633883    -0.3174496
C           1.2094626    -0.8979146    -0.7555872
O           1.1040573     0.4269681    -1.0747385
H           0.2014667     0.6026266    -1.3827490
C           0.1204092    -1.7712281    -0.8375216
C           0.2661562    -3.1107098    -0.4770493
C           1.4974627    -3.5847012    -0.0270759
C           2.5800650    -2.7063568     0.0532673
C           5.8357819     1.1933171    -0.0791392
C           5.2993519     0.7279530    -1.2808825
N           4.2302834    -0.0708138    -1.3622214
C           3.6341644    -0.4392218    -0.2148411
C           4.1011733    -0.0259874     1.0405322
C           5.2191207     0.8032405     1.1079035
H          -0.8434297    -1.3967819    -1.1791406
H          -0.5881512    -3.7787066    -0.5468642
H           1.6171760    -4.6259524     0.2568695
H           3.5459590    -3.0660655     0.3985144
H           6.7090950     1.8389694    -0.0791474
H           5.7553752     1.0072052    -2.2299736
H           3.5871565    -0.3486705     1.9408027
H           5.5990094     1.1391912     2.0693347
22
043_C11H9NO_1-0-11-10 (-60,) energy =    -554.5537037
C           2.4485428    -1.3383151    -0.3039948
C           1.2208679    -0.9134230    -0.8498568
O           1.1191611     0.3829322    -1.2649760
H           0.2299640     0.5247398    -1.6251473
C           0.1408013    -1.7988664    -0.9275210
C           0.2629615    -3.1060909    -0.4577668
C           1.4647323    -3.5379342     0.1012773
C           2.5387703    -2.6499549     0.1767522
C           5.8280263     1.2066084    -0.0746901
C           5.1710720     0.8968025    -1.2671303
N           4.0986615     0.1038872    -1.3447794
C           3.6191197    -0.4195012    -0.2018794
C           4.2114576    -0.1655786     1.0446052
C           5.3327799     0.6588342     1.1068985
H          -0.8018066    -1.4553238    -1.3511535
H          -0.5857261    -3.7811313    -0.5281563
H           1.5689260    -4.5539985     0.4698798
H           3.4839390    -2.9799494     0.6002259
H           6.6981302     1.8564853    -0.0778185
H           5.5297165     1.3026793    -2.2123917
H           3.7863016    -0.6010112     1.9437570
H           5.8064325     0.8728844     2.0615536
22
043_C11H9NO_1-0-11-10 (-45,) energy =    -554.5539180
C           2.3369087    -1.1834550    -0.3513199
C           1.7129364    -1.8726351     0.7118239
O           2.2651549    -1.7941604     1.9557209
H           1.7394449    -2.3410546     2.5602369
C           0.5763816    -2.6536123     0.4713573
C           0.0472819    -2.7666846    -0.8126704
C           0.6546925    -2.1007290    -1.8762947
C           1.7856974    -1.3225844    -1.6334062
C           5.7020073     1.3322895     0.2104102
C           4.5903861     1.3244734     1.0549489
N           3.5310428     0.5284610     0.8904990
C           3.5345589    -0.3217795    -0.1525075
C           4.6138566    -0.3930837    -1.0500915
C           5.7079128     0.4482257    -0.8669202
H           0.1109479    -3.1818534     1.3023512
H          -0.8377065    -3.3757871    -0.9758034
H           0.2487128    -2.1759587    -2.8805603
H           2.2482755    -0.7802887    -2.4537211
H           6.5330526     2.0058782     0.3974452
H           4.5468284     1.9985426     1.9097901
H           4.5960645    -1.1109607    -1.8641909
H           6.5538258     0.4060316    -1.5482494
22
043_C11H9NO_1-0-11-10 (-30,) energy =    -554.5527889
C           2.3628806    -1.2174331    -0.3393225
C           1.6653425    -1.8211823     0.7347608
O           2.1396788    -1.6837335     2.0038831
H           1.5751667    -2.2055346     2.5961143
C           0.5274391    -2.5996586     0.4839696
C           0.0567757    -2.7900207    -0.8117971
C           0.7252168    -2.1993574    -1.8834837
C           1.8543243    -1.4238800    -1.6333421
C           5.7178424     1.3246723     0.2164451
C           4.6832573     1.1916940     1.1430752
N           3.6294899     0.3889916     0.9785063
C           3.5477341    -0.3359474    -0.1523304
C           4.5582840    -0.2848574    -1.1319934
C           5.6478759     0.5598211    -0.9469243
H           0.0123647    -3.0628106     1.3246190
H          -0.8304875    -3.3948975    -0.9778971
H           0.3642949    -2.3257552    -2.8997202
H           2.3472270    -0.9310737    -2.4660390
H           6.5502262     1.9953191     0.4077131
H           4.7015312     1.7619280     2.0713867
H           4.5010544    -0.9166474    -2.0121823
H           6.4361276     0.6085179    -1.6938238
22
043_C11H9NO_1-0-11-10 (-15,) energy =    -554.5505418
C           2.3831421    -1.2385180    -0.3340941
C           1.6165876    -1.7593453     0.7413420
O           2.0018215    -1.5402220     2.0280286
H           1.3918125    -2.0249756     2.6074416
C           0.4839511    -2.5463824     0.4835675
C           0.0740535    -2.8241850    -0.8148186
C           0.8007325    -2.3087670    -1.8875581
C           1.9222034    -1.5266124    -1.6335260
C           5.7462743     1.3111673     0.2265963
C           4.8020766     1.0388317     1.2154184
N           3.7501206     0.2360539     1.0436250
C           3.5637653    -0.3458331    -0.1556545
C           4.4896328    -0.1522419    -1.2026457
C           5.5796512     0.6883777    -1.0095873
H          -0.0777942    -2.9429975     1.3285298
H          -0.8097001    -3.4334617    -0.9831024
H           0.4899156    -2.4975698    -2.9106297
H           2.4461881    -1.0961785    -2.4798769
H           6.5838601     1.9734117     0.4239838
H           4.8964641     1.4868523     2.2043393
H           4.3790434    -0.6700206    -2.1484389
H           6.2966592     0.8428679    -1.8118320
22
043_C11H9NO_1-0-11-10 (0,) energy =    -554.5489227
C           2.3785485    -1.2265532    -0.3347560
C           1.5567282    -1.6662714     0.7393371
O           1.8329880    -1.3078368     2.0224258
H           1.1568066    -1.7105267     2.5918572
C           0.4416989    -2.4817943     0.4870383
C           0.1055105    -2.8828782    -0.7987719
C           0.8958565    -2.4649641    -1.8687832
C           2.0000102    -1.6577043    -1.6225776
C           5.8021093     1.2538173     0.2445481
C           4.9758554     0.8047862     1.2725908
N           3.9065258     0.0294629     1.0872393
C           3.5814829    -0.3589019    -0.1601454
C           4.3659241     0.0513414    -1.2604389
C           5.4773133     0.8592020    -1.0524302
H          -0.1672611    -2.8010912     1.3321070
H          -0.7639289    -3.5142358    -0.9598926
H           0.6577387    -2.7627021    -2.8854346
H           2.5922653    -1.3511717    -2.4761841
H           6.6611635     1.8844582     0.4527623
H           5.1822669     1.0823287     2.3061153
H           4.1251271    -0.2478802    -2.2729096
H           6.0822439     1.1759624    -1.8981739
22
043_C11H9NO_1-0-11-10 (15,) energy =    -554.5505421
C           2.3681270    -1.2149460    -0.3240304
C           1.4893985    -1.5764200     0.7307678
O           1.6713576    -1.0711211     1.9812361
H           0.9393087    -1.3833339     2.5375204
C           0.3960609    -2.4189045     0.4789033
C           0.1508305    -2.9311412    -0.7893831
C           1.0108649    -2.6043315    -1.8372361
C           2.0965776    -1.7714028    -1.5892138
C           5.8377905     1.1809672     0.2603451
C           5.1387015     0.5579308     1.2931075
N           4.0479584    -0.1891996     1.1125200
C           3.5864971    -0.3761929    -0.1379357
C           4.2129163     0.2457008    -1.2387604
C           5.3494692     1.0196434    -1.0355401
H          -0.2687445    -2.6694245     1.3047598
H          -0.7019136    -3.5844772    -0.9523763
H           0.8503614    -3.0062311    -2.8330433
H           2.7801617    -1.5675140    -2.4060944
H           6.7203627     1.7787046     0.4673266
H           5.4694072     0.6674766     2.3256944
H           3.8063349     0.1512257    -2.2390560
H           5.8380653     1.5013293    -1.8786474
22
043_C11H9NO_1-0-11-10 (30,) energy =    -554.5527888
C           2.3847969    -1.2412473    -0.3237772
C           1.4521359    -1.5122693     0.7064551
O           1.5917187    -0.9005688     1.9151333
H           0.8393696    -1.1560187     2.4722720
C           0.3637271    -2.3607314     0.4630641
C           0.1790037    -2.9565707    -0.7809740
C           1.0891317    -2.7079598    -1.8076401
C           2.1717952    -1.8668314    -1.5643517
C           5.8458496     1.1485875     0.2565215
C           5.2518250     0.3860571     1.2626794
N           4.1595645    -0.3614356     1.0892846
C           3.5930594    -0.3934095    -0.1309929
C           4.1088171     0.3643409    -1.2002857
C           5.2500765     1.1349382    -1.0037167
H          -0.3467108    -2.5470850     1.2674517
H          -0.6712934    -3.6138167    -0.9413894
H           0.9687390    -3.1748950    -2.7804995
H           2.9011907    -1.7094352    -2.3532639
H           6.7352889     1.7375640     0.4595520
H           5.6767969     0.3749145     2.2659432
H           3.6072870     0.3674181    -2.1623814
H           5.6586584     1.7261103    -1.8192762
22
043_C11H9NO_1-0-11-10 (45,) energy =    -554.5539179
C           2.4083956    -1.2781792    -0.3266295
C           1.4229264    -1.4545431     0.6695380
O           1.5369526    -0.7545040     1.8336837
H           0.7770214    -0.9690718     2.3970252
C           0.3314819    -2.2992913     0.4357946
C           0.1981296    -2.9726194    -0.7767691
C           1.1560356    -2.8040612    -1.7756510
C           2.2424989    -1.9630141    -1.5392508
C           5.8480102     1.1300559     0.2534003
C           5.3532959     0.2419618     1.2102407
N           4.2651098    -0.5126322     1.0390003
C           3.6011920    -0.4099858    -0.1269699
C           4.0175830     0.4648317    -1.1452922
C           5.1576954     1.2401784    -0.9522523
H          -0.4216072    -2.4197140     1.2133476
H          -0.6554731    -3.6260681    -0.9354314
H           1.0663175    -3.3277277    -2.7226261
H           3.0062022    -1.8478087    -2.3037431
H           6.7404253     1.7158672     0.4527803
H           5.8621614     0.1274405     2.1667818
H           3.4417199     0.5436050    -2.0621291
H           5.4941619     1.9251242    -1.7263342
22
043_C11H9NO_1-0-11-10 (60,) energy =    -554.5537037
C           2.4307925    -1.3160327    -0.3312214
C           1.3939186    -1.3979503     0.6195352
O           1.4857667    -0.6189394     1.7366386
H           0.7142451    -0.7900144     2.2987761
C           0.2962838    -2.2350155     0.3935517
C           0.2108851    -2.9885276    -0.7766524
C           1.2189701    -2.9063895    -1.7359626
C           2.3113887    -2.0690493    -1.5052630
C           5.8518330     1.1140395     0.2514510
C           5.4598050     0.1036582     1.1317920
N           4.3763840    -0.6587165     0.9595324
C           3.6133206    -0.4306946    -0.1247479
C           3.9261758     0.5622609    -1.0656571
C           5.0629733     1.3444455    -0.8737622
H          -0.4976125    -2.2869400     1.1372132
H          -0.6479842    -3.6352984    -0.9345238
H           1.1606137    -3.4893293    -2.6502369
H           3.1088003    -2.0062096    -2.2413009
H           6.7463956     1.6981488     0.4464123
H           6.0521478    -0.1091804     2.0210000
H           3.2774219     0.7187416    -1.9220779
H           5.3233835     2.1221204    -1.5871744
22
043_C11H9NO_1-0-11-10 (75,) energy =    -554.5528028
C           2.4456214    -1.3429819    -0.3386761
C           1.3625931    -1.3302509     0.5589202
O           1.4315796    -0.4714838     1.6200792
H           0.6378448    -0.5852672     2.1654572
C           0.2581521    -2.1609032     0.3453218
C           0.2179363    -3.0035007    -0.7654706
C           1.2761984    -3.0178993    -1.6727326
C           2.3749206    -2.1845359    -1.4529676
C           5.8593701     1.1013100     0.2450909
C           5.5748697    -0.0291988     1.0129263
N           4.4950300    -0.7981117     0.8392438
C           3.6293593    -0.4528723    -0.1297074
C           3.8304238     0.6627097    -0.9543237
C           4.9632276     1.4514170    -0.7628155
H          -0.5726080    -2.1409148     1.0491225
H          -0.6460231    -3.6446856    -0.9183646
H           1.2502837    -3.6701674    -2.5405254
H           3.2079531    -2.1903969    -2.1512019
H           6.7561363     1.6840670     0.4341531
H           6.2532423    -0.3378428     1.8074392
H           3.1035136     0.9029647    -1.7241933
H           5.1403157     2.3230374    -1.3876864
22
043_C11H9NO_1-0-11-10 (90,) energy =    -554.5523978
C           2.4551360    -1.3550008    -0.3733133
C           1.3319188    -1.2590012     0.4659817
O           1.3657753    -0.3170024     1.4580379
H           0.5474428    -0.3786444     1.9747089
C           0.2285983    -2.0957225     0.2709219
C           0.2355066    -3.0344520    -0.7605299
C           1.3413367    -3.1418285    -1.6027638
C           2.4391086    -2.3029405    -1.4001643
C           5.8713132     1.0802434     0.2445324
C           5.6880010    -0.1656809     0.8450505
N           4.6091030    -0.9344103     0.6569835
C           3.6474676    -0.4734401    -0.1604300
C           3.7405730     0.7655387    -0.8085617
C           4.8708237     1.5535172    -0.6027124
H          -0.6344075    -2.0099031     0.9295138
H          -0.6275774    -3.6795691    -0.9014050
H           1.3531434    -3.8718358    -2.4066032
H           3.3098866    -2.3833555    -2.0454760
H           6.7710083     1.6573516     0.4370956
H           6.4474875    -0.5709528     1.5125181
H           2.9363558     1.0968163    -1.4583826
H           4.9675887     2.5182296    -1.0941065
22
043_C11H9NO_1-0-11-10 (105,) energy =    -554.5533631
C           2.4546084    -1.3472761    -0.4057438
C           1.2945324    -1.1799438     0.3702468
O           1.2840656    -0.1551055     1.2788419
H           0.4412464    -0.1735142     1.7581792
C           0.1988051    -2.0323960     0.2008379
C           0.2526569    -3.0650129    -0.7345811
C           1.4014014    -3.2545198    -1.5022913
C           2.4915802    -2.4019270    -1.3231722
C           5.8890941     1.0533198     0.2337049
C           5.7851417    -0.2774495     0.6378938
N           4.7001227    -1.0357760     0.4393546
C           3.6550712    -0.4792501    -0.1960482
C           3.6635459     0.8524091    -0.6344404
C           4.7987578     1.6287291    -0.4179212
H          -0.6930284    -1.8883175     0.8089659
H          -0.6051957    -3.7208236    -0.8567719
H           1.4523686    -4.0611279    -2.2275413
H           3.3991307    -2.5502858    -1.9017726
H           6.7965947     1.6180035     0.4263581
H           6.6138207    -0.7625167     1.1522257
H           2.7911404     1.2612949    -1.1344837
H           4.8317531     2.6628180    -0.7511641
22
043_C11H9NO_1-0-11-10 (120,) energy =    -554.5555165
C           2.4529202    -1.3363212    -0.4194486
C           1.2520253    -1.1128116     0.2790816
O           1.1816054    -0.0195468     1.1028471
H           0.3153871    -0.0159198     1.5389587
C           0.1693970    -1.9844864     0.1237945
C           0.2733265    -3.0927103    -0.7153016
C           1.4638211    -3.3412962    -1.3986726
C           2.5415537    -2.4724605    -1.2328816
C           5.9118873     1.0313147     0.1997671
C           5.8585064    -0.3452069     0.4166712
N           4.7636333    -1.0900034     0.2246417
C           3.6529762    -0.4734200    -0.2168280
C           3.6087243     0.9084893    -0.4564089
C           4.7550009     1.6693188    -0.2476603
H          -0.7529944    -1.7953568     0.6709768
H          -0.5763834    -3.7608288    -0.8272273
H           1.5557802    -4.2075502    -2.0469941
H           3.4837902    -2.6671712    -1.7365103
H           6.8304032     1.5824603     0.3786925
H           6.7386495    -0.8809378     0.7700771
H           2.6869492     1.3673203    -0.7977719
H           4.7459690     2.7406473    -0.4311474
22
043_C11H9NO_1-0-11-10 (135,) energy =    -554.5577455
C           2.4515808    -1.3393097    -0.3992436
C           1.2066472    -1.0730608     0.2044124
O           1.0765070     0.0691049     0.9522863
H           0.1882962     0.0825955     1.3415489
C           0.1347156    -1.9570107     0.0422096
C           0.2873058    -3.1190647    -0.7109575
C           1.5177338    -3.4095473    -1.3016205
C           2.5832854    -2.5293037    -1.1295477
C           5.9319309     1.0160776     0.1532917
C           5.9076072    -0.3774435     0.2090575
N           4.8035637    -1.1113794     0.0408219
C           3.6454545    -0.4703066    -0.2069916
C           3.5726967     0.9304030    -0.2815881
C           4.7316870     1.6791059    -0.1005007
H          -0.8191571    -1.7320615     0.5173197
H          -0.5553175    -3.7948447    -0.8297707
H           1.6480949    -4.3163734    -1.8846249
H           3.5551204    -2.7521314    -1.5581086
H           6.8603062     1.5588231     0.3045334
H           6.8217715    -0.9363023     0.4058277
H           2.6225614     1.4134983    -0.4759492
H           4.6977686     2.7640081    -0.1587803
22
043_C11H9NO_1-0-11-10 (150,) energy =    -554.5590094
C           2.4584554    -1.3514310    -0.3571432
C           1.1737812    -1.0470303     0.1409691
O           0.9859967     0.1299101     0.8207873
H           0.0708475     0.1564577     1.1410292
C           0.1094347    -1.9363514    -0.0427375
C           0.2993918    -3.1400958    -0.7159623
C           1.5641947    -3.4663705    -1.2071919
C           2.6207399    -2.5808752    -1.0174496
C           5.9589081     1.0081906     0.0999048
C           5.9464942    -0.3840171     0.0102940
N           4.8358758    -1.1113248    -0.1240989
C           3.6487899    -0.4736506    -0.1801446
C           3.5656259     0.9280578    -0.1068990
C           4.7345887     1.6707472     0.0342183
H          -0.8718650    -1.6783247     0.3533596
H          -0.5393487    -3.8174299    -0.8518414
H           1.7266806    -4.4033344    -1.7316062
H           3.6150115    -2.8255075    -1.3745973
H           6.8943838     1.5476549     0.2141783
H           6.8785908    -0.9465320     0.0523727
H           2.6030055     1.4188833    -0.1607125
H           4.6869667     2.7553763     0.0886945
22
043_C11H9NO_1-0-11-10 (165,) energy =    -554.5591282
C           2.4636475    -1.3511943    -0.3193573
C           1.1491147    -1.0110355     0.0721846
O           0.9123608     0.2028274     0.6672983
H          -0.0273055     0.2498566     0.9030640
C           0.0900237    -1.9050335    -0.1230739
C           0.3055524    -3.1496132    -0.7058220
C           1.5955664    -3.5110565    -1.0963710
C           2.6450990    -2.6207247    -0.8991793
C           5.9903619     1.0022700     0.0513420
C           5.9677943    -0.3711507    -0.1948360
N           4.8496044    -1.0878070    -0.2997542
C           3.6572729    -0.4695466    -0.1604277
C           3.5858971     0.9156003     0.0783694
C           4.7647652     1.6498363     0.1843360
H          -0.9110710    -1.6134696     0.1923637
H          -0.5304072    -3.8284373    -0.8508135
H           1.7827757    -4.4785273    -1.5528357
H           3.6544492    -2.8879655    -1.1891009
H           6.9321907     1.5367755     0.1308333
H           6.8987397    -0.9248968    -0.3132290
H           2.6272471     1.4040251     0.1746668
H           4.7201101     2.7206107     0.3666046
22
043_C11H9NO_1-0-11-10 (180,) energy =    -554.5589028
C           2.4557974    -1.3419926    -0.3225411
C           1.1217636    -0.9753497    -0.0287820
O           0.8463560     0.2876434     0.4323719
H          -0.1097372     0.3573654     0.5797380
C           0.0712345    -1.8846485    -0.2018592
C           0.3103973    -3.1727629    -0.6671363
C           1.6172948    -3.5606040    -0.9648783
C           2.6569731    -2.6548925    -0.7917013
C           5.9930408     1.0108973     0.0185719
C           5.9492185    -0.3127676    -0.4214312
N           4.8277355    -1.0236401    -0.5175047
C           3.6503783    -0.4556528    -0.1757883
C           3.6033302     0.8763436     0.2781485
C           4.7860470     1.6066509     0.3730486
H          -0.9437209    -1.5670053     0.0345734
H          -0.5190328    -3.8630154    -0.7944360
H           1.8259313    -4.5620391    -1.3296215
H           3.6769316    -2.9407130    -1.0183206
H           6.9360782     1.5457586     0.0782528
H           6.8645194    -0.8280747    -0.7116070
H           2.6619946     1.3286735     0.5501156
H           4.7571059     2.6355192     0.7229347
