21
327_C8H10N2O_9-10-11-15 (-165,) energy =    -495.6176937
N           2.2767189    -1.2677095    -1.2276045
H           1.3479511    -0.9023747    -1.0385721
H           2.2964047    -2.2437340    -0.9348408
C           5.3362180     0.9818411     0.6183906
H           6.1369076     1.5457092     1.0885475
C           4.0048701     1.3018494     0.8805536
H           3.7555391     2.1154999     1.5557758
C           2.9851658     0.5543297     0.2893098
H           1.9431009     0.7770864     0.5103514
C           3.2841214    -0.4981144    -0.5772741
C           4.6356158    -0.7859001    -0.8758452
N           4.8570870    -1.7991406    -1.8322387
H           4.0465629    -1.9897476    -2.4102190
C           5.6570364    -0.0558496    -0.2581964
H           6.6855315    -0.3110029    -0.4737567
C           6.0224358    -2.4756526    -2.1098423
C           5.9160337    -3.4617683    -3.2663363
H           6.5069458    -3.0857943    -4.1086066
H           4.8916617    -3.6382366    -3.6096371
H           6.3596109    -4.4116335    -2.9555328
O           7.0714804    -2.3119777    -1.5022234
21
327_C8H10N2O_9-10-11-15 (-150,) energy =    -495.6170541
N           2.2923031    -1.2866439    -1.2329135
H           1.3589544    -1.0220817    -0.9331136
H           2.4130658    -2.2843595    -1.0688979
C           5.3360493     0.9971817     0.5940822
H           6.1315178     1.5714597     1.0600929
C           4.0026758     1.2602367     0.9067865
H           3.7478716     2.0409655     1.6180086
C           2.9886796     0.5011815     0.3216248
H           1.9478541     0.6823335     0.5826941
C           3.2939650    -0.5134872    -0.5889534
C           4.6435297    -0.7403564    -0.9386253
N           4.8853707    -1.7161762    -1.9321874
H           4.1094394    -1.8617057    -2.5669648
C           5.6590701     0.0023444    -0.3295382
H           6.6888807    -0.2125996    -0.5824302
C           5.9928094    -2.5235048    -2.0667813
C           5.9256325    -3.4950874    -3.2383915
H           6.6590457    -3.1915989    -3.9932112
H           4.9411053    -3.5550819    -3.7134016
H           6.2153817    -4.4880667    -2.8838244
O           6.9689771    -2.4668935    -1.3331117
21
327_C8H10N2O_9-10-11-15 (-135,) energy =    -495.6158853
N           2.3038170    -1.2851439    -1.2051247
H           1.3885237    -1.1411147    -0.7910809
H           2.5220187    -2.2784733    -1.1939051
C           5.3439326     1.0440295     0.5681024
H           6.1367681     1.6315247     1.0214980
C           4.0140899     1.2489647     0.9372526
H           3.7605436     1.9994914     1.6808865
C           3.0025404     0.4756246     0.3685782
H           1.9677782     0.6165494     0.6744107
C           3.3047544    -0.5049537    -0.5824592
C           4.6460652    -0.6711842    -0.9882344
N           4.9071858    -1.6184778    -2.0103412
H           4.1830031    -1.6978285    -2.7137851
C           5.6581601     0.0880566    -0.3978411
H           6.6842354    -0.0833399    -0.6991811
C           5.9189715    -2.5562344    -2.0173227
C           5.8949580    -3.5029482    -3.2108300
H           6.7520333    -3.2815744    -3.8558265
H           4.9820633    -3.4415274    -3.8120837
H           6.0182916    -4.5262922    -2.8458071
O           6.7891186    -2.6160550    -1.1627017
21
327_C8H10N2O_9-10-11-15 (-120,) energy =    -495.6144542
N           2.3034827    -1.2948520    -1.1471903
H           1.4340130    -1.2859321    -0.6252753
H           2.6018336    -2.2521491    -1.3082925
C           5.3407166     1.1052357     0.5323160
H           6.1305820     1.7135387     0.9624040
C           4.0213197     1.2456429     0.9664438
H           3.7739740     1.9687614     1.7389849
C           3.0129922     0.4495056     0.4269558
H           1.9893298     0.5478639     0.7823146
C           3.3052938    -0.5003717    -0.5611159
C           4.6319252    -0.6043666    -1.0281631
N           4.9110477    -1.5323173    -2.0708740
H           4.2771003    -1.5166977    -2.8603214
C           5.6391433     0.1822282    -0.4690573
H           6.6551078     0.0579243    -0.8274302
C           5.7916576    -2.5925118    -1.9741349
C           5.8335874    -3.4954574    -3.2009825
H           6.7893200    -3.3489024    -3.7155487
H           5.0237549    -3.3162985    -3.9157635
H           5.7989105    -4.5366205    -2.8690674
O           6.5109842    -2.7797127    -1.0068147
21
327_C8H10N2O_9-10-11-15 (-105,) energy =    -495.6132224
N           2.3350296    -1.3518529    -1.0833440
H           1.5305254    -1.4745538    -0.4796294
H           2.6854076    -2.2464883    -1.4075059
C           5.3351027     1.1699673     0.4772942
H           6.1114286     1.8162331     0.8751238
C           4.0282862     1.2442967     0.9647243
H           3.7782372     1.9550753     1.7480330
C           3.0358756     0.4060125     0.4643064
H           2.0226309     0.4632493     0.8561420
C           3.3285088    -0.5299966    -0.5403611
C           4.6426864    -0.5807402    -1.0495850
N           4.9467214    -1.5043233    -2.0976354
H           4.5211314    -1.3387869    -3.0010981
C           5.6312338     0.2562255    -0.5325419
H           6.6365824     0.1768081    -0.9346356
C           5.6530796    -2.6773732    -1.9191270
C           5.8362476    -3.5075267    -3.1845448
H           6.8902618    -3.4715628    -3.4799957
H           5.2266766    -3.1734056    -4.0304766
H           5.5975552    -4.5500225    -2.9573149
O           6.1217177    -3.0184521    -0.8460981
21
327_C8H10N2O_9-10-11-15 (-90,) energy =    -495.6130895
N           2.4494961    -1.2611983    -0.5058843
H           1.7844626    -1.4391505     0.2370701
H           2.8111279    -2.1271987    -0.8868081
C           5.4254312     1.5720572     0.4512564
H           6.1909180     2.3044471     0.6882890
C           4.2116199     1.5582640     1.1421940
H           4.0231268     2.2857898     1.9274377
C           3.2353308     0.6135407     0.8417033
H           2.2938772     0.6104685     1.3866762
C           3.4420781    -0.3434499    -0.1669528
C           4.6678838    -0.3223444    -0.8648804
N           4.8725391    -1.2287138    -1.9589878
H           4.8818832    -0.8268236    -2.8878579
C           5.6407272     0.6266764    -0.5502980
H           6.5758360     0.6125634    -1.1043885
C           5.4090444    -2.4906670    -1.8087880
C           5.8425741    -3.1600771    -3.1066209
H           5.6418800    -4.2311593    -3.0346916
H           6.9241116    -3.0317364    -3.2324546
H           5.3426781    -2.7546169    -3.9924426
O           5.5154481    -3.0363170    -0.7211926
21
327_C8H10N2O_9-10-11-15 (-75,) energy =    -495.6165082
N           2.5689989    -1.3936774    -0.4153621
H           1.8434283    -1.4740147     0.2879555
H           3.0128211    -2.2946547    -0.5817032
C           5.3833039     1.6498859     0.3871477
H           6.1116254     2.4306675     0.5834688
C           4.1837805     1.5956102     1.0994715
H           3.9671999     2.3392144     1.8619121
C           3.2613040     0.5831673     0.8511804
H           2.3334190     0.5406577     1.4177078
C           3.4978505    -0.3941670    -0.1308029
C           4.7115955    -0.3294033    -0.8507146
N           4.9239197    -1.1849793    -1.9823420
H           5.2741319    -0.7125268    -2.8063002
C           5.6336654     0.6845140    -0.5872197
H           6.5562758     0.7137025    -1.1629906
C           5.2029367    -2.5277918    -1.8903523
C           5.8214141    -3.1542669    -3.1303136
H           5.4090742    -4.1570015    -3.2617636
H           6.9025218    -3.2562175    -2.9785759
H           5.6531204    -2.5698244    -4.0403840
O           4.9381137    -3.1850387    -0.8887052
21
327_C8H10N2O_9-10-11-15 (-60,) energy =    -495.6190793
N           2.5414708    -1.3250458    -0.6697448
H           1.7611787    -1.3718950    -0.0242473
H           2.9363600    -2.2499225    -0.8396250
C           5.4243451     1.5699773     0.4104967
H           6.1649750     2.3192813     0.6723756
C           4.1869797     1.5270316     1.0562948
H           3.9492492     2.2491039     1.8329006
C           3.2535969     0.5529272     0.7188633
H           2.2936905     0.5216066     1.2301881
C           3.5075130    -0.3986242    -0.2866616
C           4.7638157    -0.3474010    -0.9350007
N           5.0644142    -1.1807646    -2.0577985
H           5.5516815    -0.7150391    -2.8116565
C           5.6987894     0.6283661    -0.5781066
H           6.6568849     0.6420507    -1.0935383
C           5.0650801    -2.5498446    -2.0846536
C           5.6218526    -3.1800614    -3.3521595
H           6.3077458    -3.9825130    -3.0675111
H           6.1436760    -2.4760354    -4.0077583
H           4.7993710    -3.6364709    -3.9132220
O           4.6017699    -3.2385703    -1.1778165
21
327_C8H10N2O_9-10-11-15 (-45,) energy =    -495.6195363
N           2.5662512    -1.3486523    -0.6365555
H           1.7888268    -1.3895766     0.0127669
H           2.9514730    -2.2749618    -0.8259843
C           5.3945249     1.6220775     0.3849282
H           6.1128272     2.3997397     0.6252687
C           4.1649853     1.5498317     1.0433944
H           3.9079229     2.2773090     1.8085992
C           3.2642462     0.5401786     0.7279855
H           2.3070202     0.4888532     1.2428128
C           3.5351070    -0.4230536    -0.2644517
C           4.7880745    -0.3459295    -0.9204579
N           5.1695172    -1.2121807    -1.9902434
H           5.7118618    -0.7635572    -2.7159740
C           5.6929885     0.6672566    -0.5817124
H           6.6524840     0.6957616    -1.0944937
C           5.0290460    -2.5677624    -2.1014898
C           5.5964633    -3.1706799    -3.3779796
H           6.1928733    -4.0474719    -3.1119159
H           6.2119450    -2.4809614    -3.9639567
H           4.7673472    -3.5166481    -4.0045726
O           4.4733293    -3.2730448    -1.2602458
21
327_C8H10N2O_9-10-11-15 (-30,) energy =    -495.6182906
N           2.9285885     0.1613870    -1.5166918
H           2.8398572    -0.8205117    -1.7838724
H           2.0346927     0.6376867    -1.4848660
C           5.3615883     1.0428869     1.8247643
H           6.0062540     1.2912846     2.6620524
C           4.1902260     1.7623051     1.5777079
H           3.9051216     2.5893758     2.2221854
C           3.3802091     1.4191748     0.5039404
H           2.4726547     1.9869556     0.3091274
C           3.6990810     0.3670269    -0.3803580
C           4.8828260    -0.3664866    -0.1126627
N           5.3647346    -1.4581129    -0.8988039
H           6.3727588    -1.5361914    -0.8950086
C           5.6820142    -0.0175344     0.9853095
H           6.5762527    -0.6071857     1.1796482
C           4.7192231    -2.3959107    -1.6561645
C           5.6408362    -3.3324277    -2.4246350
H           5.2511996    -4.3496686    -2.3382508
H           6.6812615    -3.3146103    -2.0847904
H           5.6183266    -3.0599259    -3.4857737
O           3.4966149    -2.5126428    -1.7382308
21
327_C8H10N2O_9-10-11-15 (-15,) energy =    -495.6161909
N           2.8378527     0.1557779    -1.4528917
H           2.8020131    -0.8066422    -1.7930839
H           1.9282799     0.5935969    -1.3749497
C           5.3974219     1.0696316     1.7820095
H           6.0743801     1.3291296     2.5898162
C           4.2183551     1.7862175     1.5668470
H           3.9562676     2.6237579     2.2074730
C           3.3736574     1.4278622     0.5264564
H           2.4628225     1.9966215     0.3510167
C           3.6552600     0.3604527    -0.3543955
C           4.8465082    -0.3743749    -0.1165435
N           5.2994403    -1.5156069    -0.8524258
H           6.2951986    -1.6555765    -0.7474734
C           5.6832071    -0.0037454     0.9477779
H           6.5824249    -0.5921444     1.1245308
C           4.7141607    -2.3780397    -1.7389721
C           5.6861581    -3.3382906    -2.4117098
H           5.2342457    -4.3329960    -2.4284320
H           6.6669548    -3.3964950    -1.9291040
H           5.8297402    -3.0241546    -3.4517158
O           3.5122293    -2.4344289    -1.9980531
21
327_C8H10N2O_9-10-11-15 (0,) energy =    -495.6141945
N           2.5904166    -0.1313145    -1.1541534
H           2.8646099    -0.7324645    -1.9317777
H           1.9115937     0.5839422    -1.3767882
C           5.4522190     1.0500313     1.7174166
H           6.1713886     1.3342705     2.4789679
C           4.2516757     1.7445272     1.5579850
H           4.0117460     2.5894520     2.1975633
C           3.3535896     1.3496933     0.5780394
H           2.4091290     1.8782386     0.4670689
C           3.5903558     0.2574272    -0.2868095
C           4.8251627    -0.4293499    -0.1343166
N           5.3213060    -1.5060079    -0.9411583
H           6.1608747    -1.8967580    -0.5361127
C           5.7191445    -0.0145550     0.8661302
H           6.6654850    -0.5453922     0.9643916
C           4.8791148    -2.2118874    -2.0277058
C           5.7345202    -3.4263551    -2.3675134
H           5.1749943    -4.3325353    -2.1100145
H           6.7010472    -3.4572223    -1.8546918
H           5.9014626    -3.4403616    -3.4474347
O           3.9018423    -1.9428072    -2.7252231
21
327_C8H10N2O_9-10-11-15 (15,) energy =    -495.6161899
N           2.5881014    -0.2522005    -1.0879269
H           2.9080245    -0.7280611    -1.9332299
H           1.8498095     0.4202468    -1.2549811
C           5.4687902     1.1078753     1.6873489
H           6.1928041     1.4332050     2.4276955
C           4.2460487     1.7643582     1.5330993
H           3.9943558     2.6176539     2.1568842
C           3.3431186     1.3241486     0.5763768
H           2.3846585     1.8275629     0.4678396
C           3.5951708     0.2146726    -0.2602556
C           4.8491015    -0.4341584    -0.1103565
N           5.3286575    -1.5398271    -0.8823713
H           6.0595662    -2.0438318    -0.3988191
C           5.7541111     0.0321722     0.8559387
H           6.7176631    -0.4679945     0.9426353
C           4.9510716    -2.1200513    -2.0625927
C           5.6770202    -3.4202640    -2.3816993
H           4.9738516    -4.2526978    -2.2670034
H           6.5508906    -3.6151635    -1.7520325
H           5.9875033    -3.3956819    -3.4292665
O           4.1199106    -1.6690937    -2.8505024
21
327_C8H10N2O_9-10-11-15 (30,) energy =    -495.6182905
N           2.6018359    -0.3593945    -1.0506741
H           2.9444072    -0.7532090    -1.9287119
H           1.8241050     0.2758203    -1.1868732
C           5.4845987     1.1522281     1.6450845
H           6.2123801     1.5177440     2.3627779
C           4.2447366     1.7768172     1.4923809
H           3.9860105     2.6427242     2.0956568
C           3.3352102     1.2927741     0.5621548
H           2.3667873     1.7764145     0.4515628
C           3.6012118     0.1643324    -0.2419297
C           4.8682761    -0.4540203    -0.0897232
N           5.3100486    -1.6043434    -0.8133266
H           5.9534607    -2.1811596    -0.2884898
C           5.7820582     0.0566931     0.8431195
H           6.7545482    -0.4250657     0.9285137
C           5.0145236    -2.0672293    -2.0655015
C           5.6435173    -3.4099395    -2.4096554
H           4.8579886    -4.1734946    -2.4283404
H           6.4236212    -3.7318873    -1.7125667
H           6.0641290    -3.3477809    -3.4165029
O           4.3073180    -1.4790561    -2.8834885
21
327_C8H10N2O_9-10-11-15 (45,) energy =    -495.6195366
N           2.6051074    -0.4275852    -1.0099741
H           2.9619711    -0.7760582    -1.9007900
H           1.8078416     0.1854215    -1.1375568
C           5.5083013     1.1884988     1.6029045
H           6.2470572     1.5849450     2.2924996
C           4.2574861     1.7938006     1.4625239
H           4.0043254     2.6739129     2.0474671
C           3.3300806     1.2769726     0.5664168
H           2.3563795     1.7511607     0.4614071
C           3.5954445     0.1305128    -0.2089937
C           4.8695174    -0.4712394    -0.0647391
N           5.2501934    -1.6736838    -0.7353259
H           5.8283131    -2.2937451    -0.1844755
C           5.8007246     0.0693428     0.8301207
H           6.7756635    -0.4072653     0.9121142
C           5.0629381    -2.0358950    -2.0405146
C           5.6411917    -3.3909128    -2.4206120
H           4.8180454    -4.0970379    -2.5752930
H           6.3238891    -3.8104936    -1.6750309
H           6.1675399    -3.2879238    -3.3730639
O           4.4576498    -1.3510471    -2.8642275
21
327_C8H10N2O_9-10-11-15 (60,) energy =    -495.6190777
N           2.5806567    -0.4579570    -0.9759346
H           2.9455506    -0.7864103    -1.8698937
H           1.7797307     0.1494969    -1.1072061
C           5.5360116     1.2049404     1.5460522
H           6.2960204     1.6177039     2.2022422
C           4.2787593     1.8029364     1.4380283
H           4.0447020     2.6938620     2.0146507
C           3.3201799     1.2698516     0.5831133
H           2.3446767     1.7444644     0.4995361
C           3.5686208     0.1119701    -0.1775713
C           4.8451877    -0.4865557    -0.0617695
N           5.1484087    -1.7367788    -0.6866375
H           5.6756283    -2.3800700    -0.1114177
C           5.8048151     0.0660257     0.7911410
H           6.7780409    -0.4157434     0.8583962
C           5.0983814    -2.0164047    -2.0262167
C           5.6667233    -3.3669556    -2.4345934
H           4.8417464    -4.0296660    -2.7175799
H           6.2551734    -3.8569996    -1.6526501
H           6.2915388    -3.2260088    -3.3204781
O           4.5824449    -1.2633759    -2.8496976
21
327_C8H10N2O_9-10-11-15 (75,) energy =    -495.6165069
N           2.4899576    -0.4136111    -0.9203861
H           2.8162343    -0.7527530    -1.8231001
H           1.7009143     0.2123636    -1.0351608
C           5.6204495     1.2067651     1.4043807
H           6.4308893     1.6132229     2.0015358
C           4.3658730     1.8192165     1.3895947
H           4.1880246     2.7143960     1.9796764
C           3.3364671     1.2990281     0.6103581
H           2.3647562     1.7881992     0.5957705
C           3.5205407     0.1393034    -0.1621625
C           4.7912668    -0.4773138    -0.1378729
N           4.9824866    -1.7574060    -0.7563273
H           5.4684290    -2.4337789    -0.1810068
C           5.8190702     0.0577862     0.6400077
H           6.7846467    -0.4434038     0.6452173
C           5.0601560    -1.9515677    -2.1148839
C           5.6861072    -3.2653258    -2.5562342
H           5.1015166    -3.6742415    -3.3836889
H           5.7503288    -4.0090074    -1.7558481
H           6.6970270    -3.0686159    -2.9315932
O           4.6178182    -1.1377823    -2.9195310
21
327_C8H10N2O_9-10-11-15 (90,) energy =    -495.6130877
N           2.3988293    -0.4824997    -0.7495952
H           2.6671434    -1.0232391    -1.5629635
H           1.6489483     0.1613652    -0.9713072
C           5.6458058     1.2572779     1.3072947
H           6.4824534     1.6966956     1.8416098
C           4.3838934     1.8553657     1.3388933
H           4.2296403     2.7713001     1.9034053
C           3.3152133     1.2946177     0.6464490
H           2.3365875     1.7687690     0.6755727
C           3.4764597     0.1110590    -0.0944237
C           4.7516877    -0.4915975    -0.1194472
N           4.9253112    -1.7460997    -0.7946121
H           5.0645501    -2.5624266    -0.2128582
C           5.8163293     0.0838122     0.5745334
H           6.7867484    -0.4039914     0.5307056
C           5.2622702    -1.8510438    -2.1277396
C           5.7018988    -3.2406880    -2.5706572
H           5.2995928    -3.4367867    -3.5671121
H           5.3868984    -4.0371205    -1.8885643
H           6.7953287    -3.2616155    -2.6452225
O           5.1994988    -0.9068005    -2.9001595
21
327_C8H10N2O_9-10-11-15 (105,) energy =    -495.6132232
N           2.3910863    -0.6071272    -0.6234904
H           2.6437392    -1.1230250    -1.4590383
H           1.5891751    -0.0113965    -0.7928281
C           5.6577448     1.3218250     1.2212324
H           6.5021392     1.8137561     1.6941038
C           4.3740712     1.8642901     1.3159858
H           4.2110931     2.7862359     1.8680418
C           3.2933580     1.2408238     0.6985705
H           2.2983718     1.6749780     0.7690910
C           3.4717802     0.0544637    -0.0308254
C           4.7647333    -0.5046158    -0.0985553
N           4.9549855    -1.7311084    -0.8082617
H           4.5336528    -2.5644740    -0.4173417
C           5.8419591     0.1349012     0.5144294
H           6.8267987    -0.3133874     0.4254554
C           5.5428849    -1.8239293    -2.0544511
C           5.6258343    -3.2401043    -2.6124098
H           5.3396753    -3.2182419    -3.6670751
H           4.9999377    -3.9653738    -2.0820612
H           6.6663006    -3.5792926    -2.5626291
O           5.9916957    -0.8618450    -2.6547234
21
327_C8H10N2O_9-10-11-15 (120,) energy =    -495.6144541
N           2.3725059    -0.6553096    -0.5694265
H           2.5737509    -1.0201547    -1.4955820
H           1.5179822    -0.1095804    -0.5899786
C           5.6587449     1.3614957     1.1449757
H           6.5117203     1.8761862     1.5767430
C           4.3674822     1.8653142     1.3117110
H           4.2057702     2.7781634     1.8786819
C           3.2769186     1.2135529     0.7394479
H           2.2744265     1.6204455     0.8547155
C           3.4573719     0.0418434    -0.0078943
C           4.7587444    -0.4870119    -0.1330415
N           4.9272462    -1.7071883    -0.8465286
H           4.2833930    -2.4521361    -0.6101880
C           5.8476350     0.1820287     0.4259917
H           6.8399066    -0.2328084     0.2868185
C           5.7028107    -1.8627434    -1.9792680
C           5.6330433    -3.2482420    -2.6099548
H           5.4892861    -3.1340711    -3.6878598
H           4.8396654    -3.8847307    -2.2047089
H           6.5935115    -3.7530843    -2.4610850
O           6.4187640    -0.9823608    -2.4270682
21
327_C8H10N2O_9-10-11-15 (135,) energy =    -495.6158853
N           2.5493051    -0.9029731    -0.9557733
H           2.7056126    -1.0252368    -1.9533038
H           1.6259433    -0.5078380    -0.8100240
C           5.6384573     1.2996325     0.8931047
H           6.4434108     1.8621602     1.3566940
C           4.3075670     1.6432019     1.1327673
H           4.0653144     2.4761240     1.7870760
C           3.2789018     0.9315926     0.5162372
H           2.2414840     1.2151099     0.6820993
C           3.5654563    -0.1374442    -0.3394932
C           4.9118939    -0.5112538    -0.5365718
N           5.1629297    -1.6474553    -1.3465502
H           4.4688846    -2.3817661    -1.2783701
C           5.9392582     0.2196810     0.0630531
H           6.9661141    -0.0638674    -0.1324175
C           6.1149464    -1.7497701    -2.3396376
C           6.0872450    -3.0647464    -3.1086524
H           6.1099908    -2.8424507    -4.1791688
H           5.2183149    -3.6935635    -2.8891687
H           6.9951108    -3.6307225    -2.8744787
O           6.9395179    -0.8806290    -2.5758707
21
327_C8H10N2O_9-10-11-15 (150,) energy =    -495.6170544
N           2.5386630    -0.9307304    -0.9523075
H           2.5898409    -0.9057285    -1.9690108
H           1.6101653    -0.6323760    -0.6696302
C           5.6265752     1.3182958     0.8435159
H           6.4327618     1.8914582     1.2921689
C           4.2984664     1.6142439     1.1491742
H           4.0584221     2.4193533     1.8379956
C           3.2688192     0.8884330     0.5493276
H           2.2298560     1.1328355     0.7617291
C           3.5542750    -0.1453139    -0.3460749
C           4.9024725    -0.4720105    -0.6119544
N           5.1309361    -1.5846779    -1.4531525
H           4.3781254    -2.2625002    -1.4563796
C           5.9315257     0.2751662    -0.0317103
H           6.9570846     0.0336640    -0.2778056
C           6.1920744    -1.7907112    -2.3062651
C           6.1197400    -3.0892379    -3.0998348
H           6.3145255    -2.8651773    -4.1523353
H           5.1621602    -3.6129099    -3.0143997
H           6.9156425    -3.7588199    -2.7566805
O           7.1345247    -1.0202084    -2.4181415
21
327_C8H10N2O_9-10-11-15 (165,) energy =    -495.6176937
N           2.3129097    -0.9015398    -0.7856231
H           2.2331499    -0.7619696    -1.7920372
H           1.4306308    -0.6316846    -0.3607035
C           5.6177681     1.1746188     0.8256071
H           6.4797915     1.7015141     1.2248302
C           4.3314295     1.5205643     1.2370856
H           4.1787240     2.3182457     1.9585485
C           3.2305161     0.8526702     0.6985778
H           2.2210059     1.1350073     0.9910874
C           3.4047126    -0.1715962    -0.2333814
C           4.7140427    -0.5492726    -0.6095637
N           4.8141551    -1.6542377    -1.4810586
H           3.9808483    -2.2310293    -1.4957184
C           5.8151829     0.1420035    -0.0924812
H           6.8078618    -0.1396303    -0.4159826
C           5.8972486    -2.0648780    -2.2233825
C           5.6712192    -3.3526880    -3.0055056
H           6.0005461    -3.1960309    -4.0364291
H           4.6321735    -3.6971575    -3.0084057
H           6.3000744    -4.1414343    -2.5786803
O           6.9656293    -1.4704188    -2.2639874
21
327_C8H10N2O_9-10-11-15 (180,) energy =    -495.6176325
N           2.3105096    -0.9413925    -0.8076077
H           2.1344679    -0.6825112    -1.7781211
H           1.4536470    -0.7793011    -0.2861095
C           5.6106401     1.1619924     0.7823465
H           6.4716391     1.6959020     1.1746940
C           4.3317858     1.4523080     1.2547886
H           4.1830250     2.2123493     2.0165254
C           3.2322728     0.7750219     0.7246362
H           2.2259372     1.0129307     1.0639149
C           3.4021965    -0.2036669    -0.2547317
C           4.7067752    -0.5244340    -0.6970790
N           4.7994904    -1.5874831    -1.6186007
H           3.9429971    -2.1279258    -1.6763550
C           5.8058814     0.1780477    -0.1883913
H           6.7945374    -0.0664081    -0.5511412
C           5.9240505    -2.1134996    -2.2134018
C           5.6741552    -3.3932999    -3.0013456
H           6.1854926    -3.3149577    -3.9643664
H           4.6149217    -3.6100036    -3.1723641
H           6.1201811    -4.2359350    -2.4613275
O           7.0401766    -1.6185776    -2.1351531
