21
327_C8H10N2O_10-11-15-16 (-165,) energy =    -495.6174559
N           2.5466384    -0.9436045    -0.5907321
H           1.6367990    -0.5745489    -0.3302651
H           2.6281240    -1.8819281    -0.2010066
C           5.7383027     1.5375404     0.6258418
H           6.5734491     2.1600929     0.9342771
C           4.4406917     1.8585511     1.0211435
H           4.2517767     2.7315069     1.6394709
C           3.3798909     1.0351818     0.6401808
H           2.3665927     1.2591888     0.9679996
C           3.6020539    -0.0928742    -0.1505249
C           4.9145066    -0.3845605    -0.5888003
N           5.0401984    -1.4858694    -1.4631579
H           4.1600094    -1.7358181    -1.9018044
C           5.9816298     0.4212401    -0.1762806
H           6.9829133     0.1654008    -0.4944536
C           6.1883489    -2.0182997    -2.0082659
C           5.9397826    -2.9630840    -3.1769248
H           6.7049066    -3.7423021    -3.1673974
H           6.0417474    -2.4047692    -4.1150996
H           4.9477942    -3.4267932    -3.1601051
O           7.3181988    -1.7479179    -1.6262388
21
327_C8H10N2O_10-11-15-16 (-150,) energy =    -495.6155959
N           2.5420852    -0.9772989    -0.5632190
H           1.6313940    -0.5711321    -0.3693794
H           2.5864175    -1.8844909    -0.1004887
C           5.7405290     1.5269966     0.5854480
H           6.5775110     2.1544320     0.8786762
C           4.4374878     1.8996102     0.9115294
H           4.2457634     2.8177811     1.4594615
C           3.3737348     1.0691272     0.5549513
H           2.3548510     1.3339587     0.8309342
C           3.5988149    -0.1162036    -0.1460708
C           4.9184651    -0.4612234    -0.5183144
N           5.0512621    -1.6278783    -1.3064447
H           4.1741266    -1.8689242    -1.7592411
C           5.9877862     0.3497751    -0.1230644
H           6.9944452     0.0516577    -0.3831422
C           6.1947020    -2.0895973    -1.9333645
C           5.9274354    -2.8736515    -3.2105847
H           6.7595042    -3.5565755    -3.3921382
H           5.8727122    -2.1691794    -4.0493861
H           4.9897222    -3.4396492    -3.1822144
O           7.3280992    -1.8436633    -1.5488119
21
327_C8H10N2O_10-11-15-16 (-135,) energy =    -495.6119842
N           2.5572760    -1.0116887    -0.5019098
H           1.6466318    -0.5932732    -0.3364026
H           2.5916579    -1.9003248    -0.0038545
C           5.7611344     1.5189352     0.5714990
H           6.5998888     2.1519945     0.8470295
C           4.4562916     1.9217326     0.8516646
H           4.2648196     2.8700997     1.3455139
C           3.3902755     1.0832102     0.5216190
H           2.3694516     1.3727343     0.7636263
C           3.6145391    -0.1408487    -0.1101752
C           4.9364908    -0.5170851    -0.4394868
N           5.0759617    -1.7297643    -1.1608318
H           4.1978732    -1.9547748    -1.6234509
C           6.0070598     0.3011041    -0.0651776
H           7.0158678    -0.0230875    -0.2851939
C           6.2081056    -2.1282514    -1.8637824
C           5.9196719    -2.6984712    -3.2443806
H           6.7691386    -3.2989088    -3.5749493
H           5.7923355    -1.8605828    -3.9406746
H           5.0070919    -3.3045246    -3.2791656
O           7.3458407    -1.9442726    -1.4630332
21
327_C8H10N2O_10-11-15-16 (-120,) energy =    -495.6068869
N           2.5506223    -1.0560903    -0.4640747
H           1.6414056    -0.6254601    -0.3244964
H           2.5773251    -1.9219918     0.0728342
C           5.7675322     1.5001223     0.5055951
H           6.6097148     2.1390854     0.7557839
C           4.4632647     1.9338880     0.7387123
H           4.2753222     2.9130100     1.1698498
C           3.3926198     1.0880604     0.4441848
H           2.3718800     1.4038515     0.6512413
C           3.6108988    -0.1753967    -0.1078554
C           4.9328542    -0.5850015    -0.3915529
N           5.0770572    -1.8473898    -1.0290371
H           4.2033948    -2.0670288    -1.5056111
C           6.0067953     0.2416303    -0.0493047
H           7.0160799    -0.1079473    -0.2283893
C           6.2006324    -2.2069568    -1.7856495
C           5.9067084    -2.5511751    -3.2369094
H           6.7598540    -3.0745810    -3.6721951
H           5.7538294    -1.6096371    -3.7787586
H           5.0012578    -3.1564039    -3.3622855
O           7.3373227    -2.1149780    -1.3579153
21
327_C8H10N2O_10-11-15-16 (-105,) energy =    -495.6009204
N           2.5683534    -1.1157428    -0.3902034
H           1.6586392    -0.6844199    -0.2565275
H           2.6068541    -1.9614683     0.1772273
C           5.7897076     1.4848834     0.4341546
H           6.6334680     2.1352769     0.6466887
C           4.4867127     1.9322637     0.6475386
H           4.3007397     2.9333642     1.0256540
C           3.4144243     1.0726748     0.4020751
H           2.3946290     1.4008252     0.5941725
C           3.6289244    -0.2188361    -0.0824648
C           4.9493378    -0.6458479    -0.3461996
N           5.0983644    -1.9475363    -0.9043219
H           4.2240403    -2.1684918    -1.3826564
C           6.0241887     0.1976612    -0.0530086
H           7.0346304    -0.1606752    -0.2130722
C           6.2174454    -2.2737557    -1.7060248
C           5.9390037    -2.3641498    -3.1963044
H           6.7929052    -2.8094229    -3.7100041
H           5.7899999    -1.3414098    -3.5648847
H           5.0306267    -2.9319003    -3.4301541
O           7.3431431    -2.3160113    -1.2510358
21
327_C8H10N2O_10-11-15-16 (-90,) energy =    -495.5995080
N           2.7888856    -1.0289173    -0.9943888
H           1.8379547    -0.8122273    -0.7213816
H           3.0055821    -2.0169731    -0.9101410
C           5.7947028     1.4114786     0.6730934
H           6.5779817     2.0368196     1.0904827
C           4.4976550     1.9053412     0.5130778
H           4.2622406     2.9237309     0.8108829
C           3.4941156     1.1035121    -0.0239639
H           2.4871072     1.4961542    -0.1463613
C           3.7643764    -0.2192837    -0.4120688
C           5.0748239    -0.7142187    -0.2465951
N           5.3361259    -2.0986843    -0.6229850
H           5.9199362    -2.5019487     0.1123786
C           6.0753633     0.1019351     0.2833187
H           7.0790784    -0.3032082     0.3858599
C           6.1314481    -2.2373879    -1.8180535
C           5.3324617    -2.3069252    -3.0984180
H           5.9787645    -2.1346732    -3.9612198
H           4.4895954    -1.6091304    -3.0974181
H           4.9172200    -3.3204455    -3.1635732
O           7.3197652    -2.4754542    -1.7552181
21
327_C8H10N2O_10-11-15-16 (-75,) energy =    -495.6045816
N           2.7652506    -1.0933639    -0.9472607
H           1.8202459    -0.8875794    -0.6479843
H           2.9990558    -2.0775717    -0.8709547
C           5.7933026     1.4225104     0.5573835
H           6.5816601     2.0682751     0.9317304
C           4.4847570     1.8955676     0.4287305
H           4.2462137     2.9186950     0.7072165
C           3.4745305     1.0682216    -0.0530397
H           2.4593094     1.4455801    -0.1530009
C           3.7485664    -0.2616178    -0.4160227
C           5.0704446    -0.7358376    -0.2822087
N           5.3426428    -2.1244827    -0.6195505
H           5.8697168    -2.5499976     0.1444824
C           6.0768010     0.1064271     0.1937329
H           7.0873603    -0.2857082     0.2812116
C           6.1163736    -2.3623343    -1.7926097
C           5.3789810    -2.1614446    -3.0988922
H           6.0891737    -1.9728258    -3.9066571
H           4.6338121    -1.3634494    -3.0465278
H           4.8498477    -3.0973576    -3.3161864
O           7.2140960    -2.8802120    -1.7221630
21
327_C8H10N2O_10-11-15-16 (-60,) energy =    -495.6087969
N           2.7819528    -1.1936452    -0.9589678
H           1.8431296    -0.9882124    -0.6415684
H           3.0232550    -2.1752041    -0.8779128
C           5.8278767     1.3794989     0.4049762
H           6.6198212     2.0402410     0.7438505
C           4.5111864     1.8369506     0.3048233
H           4.2701987     2.8630431     0.5699765
C           3.4960487     0.9905221    -0.1305439
H           2.4745265     1.3559317    -0.2078906
C           3.7726438    -0.3439938    -0.4754452
C           5.1037459    -0.8019245    -0.3738372
N           5.3804327    -2.1891422    -0.6864572
H           5.8731581    -2.6476270     0.0796474
C           6.1137779     0.0593123     0.0591385
H           7.1299517    -0.3217984     0.1282840
C           6.0719845    -2.5247689    -1.8718447
C           5.4097464    -2.0945094    -3.1646562
H           6.1623229    -2.0099620    -3.9512175
H           4.8506741    -1.1608378    -3.0695687
H           4.7018792    -2.8815780    -3.4505696
O           7.0346564    -3.2695842    -1.8374272
21
327_C8H10N2O_10-11-15-16 (-45,) energy =    -495.6122360
N           2.8538848    -1.2908862    -0.8411474
H           1.9022614    -1.1101714    -0.5464349
H           3.1303617    -2.2571193    -0.7035663
C           5.7546551     1.4631283     0.4903658
H           6.5084437     2.1690073     0.8252874
C           4.4194104     1.8536416     0.3588441
H           4.1252939     2.8730162     0.5944643
C           3.4531800     0.9477182    -0.0684556
H           2.4159590     1.2600165    -0.1669580
C           3.7992432    -0.3796220    -0.3741100
C           5.1501199    -0.7690794    -0.2479161
N           5.4990922    -2.1406796    -0.5323911
H           5.9963808    -2.5916435     0.2334585
C           6.1095584     0.1509158     0.1800406
H           7.1420613    -0.1777980     0.2722004
C           6.1181111    -2.5129067    -1.7384473
C           5.5335439    -1.9056267    -2.9994593
H           5.9036063    -2.4698815    -3.8566017
H           5.8427535    -0.8589398    -3.1046763
H           4.4400114    -1.9187173    -2.9717160
O           6.9900503    -3.3642546    -1.7467399
21
327_C8H10N2O_10-11-15-16 (-30,) energy =    -495.6145560
N           2.8854137    -1.2946624    -0.8027461
H           1.9300139    -1.1196836    -0.5166615
H           3.1697823    -2.2552711    -0.6435629
C           5.7341125     1.5267196     0.5013184
H           6.4733088     2.2502187     0.8310707
C           4.3927323     1.8916072     0.3595811
H           4.0782794     2.9080015     0.5813300
C           3.4455935     0.9624971    -0.0601267
H           2.4031004     1.2545331    -0.1649636
C           3.8160612    -0.3623038    -0.3469749
C           5.1743549    -0.7256519    -0.2152777
N           5.5550534    -2.0870603    -0.4748320
H           6.0347685    -2.5584413     0.2875805
C           6.1138914     0.2180412     0.2071580
H           7.1517671    -0.0909164     0.3058021
C           6.0383076    -2.5517759    -1.7022048
C           5.5352272    -1.8309545    -2.9378595
H           5.8508271    -2.3959817    -3.8158002
H           5.9527239    -0.8188958    -2.9921872
H           4.4451834    -1.7320869    -2.9199341
O           6.7649298    -3.5307608    -1.7439396
21
327_C8H10N2O_10-11-15-16 (-15,) energy =    -495.6153662
N           2.9277198    -1.3408518    -0.8148367
H           1.9686234    -1.1749757    -0.5361038
H           3.2186237    -2.2987493    -0.6531053
C           5.7292649     1.5312689     0.4829068
H           6.4557569     2.2683885     0.8107131
C           4.3806710     1.8700779     0.3456215
H           4.0475574     2.8800693     0.5693566
C           3.4504928     0.9231111    -0.0718511
H           2.4020640     1.1948043    -0.1725175
C           3.8445207    -0.3944044    -0.3610328
C           5.2108762    -0.7320417    -0.2352639
N           5.6244179    -2.0789507    -0.4930515
H           6.0475681    -2.5923487     0.2737572
C           6.1324919     0.2306427     0.1855372
H           7.1760526    -0.0595090     0.2789752
C           5.9652214    -2.6196192    -1.7293077
C           5.5615948    -1.8157687    -2.9505800
H           5.8484509    -2.3796352    -3.8389815
H           6.0620007    -0.8411632    -2.9579384
H           4.4823295    -1.6293949    -2.9581209
O           6.5329085    -3.6989132    -1.7921241
21
327_C8H10N2O_10-11-15-16 (0,) energy =    -495.6151104
N           2.8445723    -1.0839566    -1.1766948
H           2.9256006    -1.0664355    -2.1869640
H           1.8940144    -0.9314164    -0.8636573
C           5.8022846     1.1383976     0.8484546
H           6.5683264     1.7051233     1.3686105
C           4.5754971     0.8680655     1.4601483
H           4.3775935     1.2267766     2.4667636
C           3.5940225     0.1439763     0.7906179
H           2.6405210    -0.0585427     1.2733819
C           3.8106306    -0.3282093    -0.5152909
C           5.0581602    -0.0677625    -1.1273753
N           5.2973361    -0.5094630    -2.4656692
H           5.3677514     0.1837804    -3.2031116
C           6.0328195     0.6618664    -0.4405910
H           6.9796548     0.8503130    -0.9399403
C           5.5980477    -1.7922624    -2.8986138
C           5.6854291    -2.8623520    -1.8265022
H           6.0030491    -3.7916962    -2.3008089
H           4.7125593    -3.0096178    -1.3445936
H           6.4002920    -2.5803228    -1.0463698
O           5.7874091    -2.0130619    -4.0856021
21
327_C8H10N2O_10-11-15-16 (15,) energy =    -495.6153664
N           2.8189413    -1.1051683    -1.1746784
H           2.8981437    -1.0871205    -2.1854951
H           1.8709023    -0.9450187    -0.8574441
C           5.8070951     1.1137679     0.8070195
H           6.5820702     1.6792433     1.3151776
C           4.5896796     0.8455264     1.4381111
H           4.4084212     1.2050073     2.4475852
C           3.5962635     0.1230697     0.7843560
H           2.6501160    -0.0781327     1.2818193
C           3.7926966    -0.3494320    -0.5244259
C           5.0296007    -0.0894028    -1.1563294
N           5.2341533    -0.5340987    -2.5024723
H           5.4108069     0.1752514    -3.2068998
C           6.0169692     0.6380019    -0.4861468
H           6.9563584     0.8280366    -0.9993694
C           5.6929425    -1.7860276    -2.9014524
C           5.6712387    -2.8779927    -1.8489828
H           6.0099820    -3.8048045    -2.3134704
H           4.6630110    -3.0103121    -1.4420699
H           6.3313366    -2.6251532    -1.0119348
O           6.0591695    -1.9679837    -4.0520341
21
327_C8H10N2O_10-11-15-16 (30,) energy =    -495.6145560
N           2.7850626    -1.0915833    -1.1232196
H           2.8581374    -1.0774999    -2.1348700
H           1.8407658    -0.9222456    -0.7993763
C           5.8073552     1.1324916     0.7989989
H           6.5915873     1.6996407     1.2908529
C           4.6024612     0.8651674     1.4542134
H           4.4408368     1.2267709     2.4662553
C           3.5966906     0.1408095     0.8215936
H           2.6607824    -0.0602202     1.3380555
C           3.7689439    -0.3341808    -0.4896341
C           4.9923337    -0.0738697    -1.1452949
N           5.1628216    -0.5279147    -2.4982537
H           5.4026848     0.1935570    -3.1731908
C           5.9928899     0.6547742    -0.4974440
H           6.9224058     0.8458272    -1.0283640
C           5.7705217    -1.7359009    -2.8553096
C           5.6394882    -2.8726818    -1.8602948
H           6.0022248    -3.7856183    -2.3342265
H           4.6005835    -2.9971768    -1.5386562
H           6.2359831    -2.6718266    -0.9628634
O           6.3045125    -1.8547822    -3.9456507
21
327_C8H10N2O_10-11-15-16 (45,) energy =    -495.6122363
N           2.7845292    -1.2292231    -1.1482213
H           2.8491560    -1.2416423    -2.1604990
H           1.8466295    -1.0373341    -0.8185702
C           5.8717141     0.9888195     0.6740952
H           6.6738051     1.5527814     1.1401598
C           4.6760818     0.7516309     1.3573642
H           4.5404835     1.1343632     2.3654741
C           3.6472063     0.0305065     0.7588545
H           2.7194674    -0.1485472     1.2976355
C           3.7876615    -0.4717948    -0.5461108
C           4.9996990    -0.2376359    -1.2307052
N           5.1313470    -0.7280375    -2.5820231
H           5.3968280    -0.0014904    -3.2444410
C           6.0246068     0.4858870    -0.6173642
H           6.9459816     0.6549451    -1.1697508
C           5.8690965    -1.8868774    -2.8811403
C           5.6339499    -3.0765820    -1.9701838
H           6.0347462    -3.9668704    -2.4566806
H           4.5690071    -3.2012419    -1.7532183
H           6.1457186    -2.9368996    -1.0105515
O           6.5554091    -1.9381241    -3.8868548
21
327_C8H10N2O_10-11-15-16 (60,) energy =    -495.6087961
N           2.7296665    -1.2267314    -0.9849968
H           2.7745690    -1.2997713    -1.9953204
H           1.8003697    -1.0194319    -0.6420724
C           5.8856998     1.0313032     0.6579738
H           6.7079279     1.6013796     1.0793458
C           4.7117259     0.8258703     1.3876789
H           4.6130086     1.2408129     2.3873430
C           3.6584231     0.0940513     0.8477849
H           2.7496198    -0.0628770     1.4243783
C           3.7511156    -0.4513427    -0.4446447
C           4.9385851    -0.2422060    -1.1783578
N           5.0164442    -0.7656869    -2.5267282
H           5.2683394    -0.0345347    -3.1914944
C           5.9899909     0.4891832    -0.6224490
H           6.8923973     0.6348713    -1.2115762
C           5.8438381    -1.8749651    -2.8112599
C           5.5197444    -3.1484812    -2.0575184
H           6.4078767    -3.7817469    -2.0088945
H           4.7496097    -3.6815885    -2.6277731
H           5.1262685    -2.9649820    -1.0551327
O           6.6340136    -1.8368707    -3.7368844
21
327_C8H10N2O_10-11-15-16 (75,) energy =    -495.6045814
N           2.7339540    -1.2121938    -0.8838912
H           2.7695162    -1.2897372    -1.8947693
H           1.8026322    -1.0230501    -0.5348577
C           5.8367819     1.1745349     0.6780281
H           6.6462786     1.7772755     1.0781409
C           4.6801725     0.9444214     1.4276781
H           4.5823792     1.3729504     2.4216744
C           3.6434856     0.1700297     0.9150314
H           2.7480367    -0.0066508     1.5066636
C           3.7365205    -0.3930329    -0.3693012
C           4.9048306    -0.1562942    -1.1237484
N           4.9806059    -0.7060566    -2.4684692
H           5.2746844     0.0332676    -3.1084452
C           5.9414520     0.6146858    -0.5948771
H           6.8319970     0.7757417    -1.1979093
C           5.9000733    -1.7750980    -2.6760795
C           5.4617097    -3.1144107    -2.1242324
H           6.3296048    -3.7573538    -1.9635045
H           4.8225860    -3.5810484    -2.8837657
H           4.8744375    -3.0231346    -1.2068478
O           6.8555724    -1.6419175    -3.4159638
21
327_C8H10N2O_10-11-15-16 (90,) energy =    -495.5995082
N           2.7749575    -1.2403901    -0.8196784
H           2.7920871    -1.3135382    -1.8319112
H           1.8447354    -1.0751359    -0.4548321
C           5.8156403     1.2831220     0.6488313
H           6.6093236     1.9219496     1.0239775
C           4.6793039     1.0298758     1.4211464
H           4.5804961     1.4769041     2.4068633
C           3.6627228     0.2090004     0.9404393
H           2.7818224     0.0157377     1.5486113
C           3.7571928    -0.3780067    -0.3323567
C           4.9052095    -0.1174781    -1.1094272
N           4.9779977    -0.7060185    -2.4417794
H           5.3340474     0.0185564    -3.0682137
C           5.9227949     0.6987283    -0.6131196
H           6.8018078     0.8696627    -1.2297542
C           5.9418440    -1.7727896    -2.5549409
C           5.3930596    -3.1479265    -2.2543765
H           6.2074321    -3.8558230    -2.0885617
H           4.8212724    -3.4656220    -3.1352926
H           4.7041030    -3.1405056    -1.4042858
O           7.0359194    -1.5792203    -3.0430502
21
327_C8H10N2O_10-11-15-16 (105,) energy =    -495.6009198
N           2.4329152    -0.6447745    -0.9471792
H           2.2253777    -0.2441053    -1.8609935
H           1.5996611    -0.5717853    -0.3711387
C           5.8417775     1.1173904     0.8123213
H           6.7301958     1.5698180     1.2437569
C           4.6150863     1.2128822     1.4678956
H           4.5343480     1.7374990     2.4155377
C           3.4762760     0.6556065     0.8836247
H           2.5081280     0.7508044     1.3716753
C           3.5555102    -0.0218850    -0.3344764
C           4.8113566    -0.1597622    -0.9660963
N           4.8387389    -0.9203752    -2.1697971
H           4.0416340    -1.5572490    -2.1380389
C           5.9413574     0.4411949    -0.4050381
H           6.8894721     0.3703842    -0.9256494
C           6.0137797    -1.5899408    -2.5839800
C           6.0028175    -3.0960880    -2.3878387
H           6.8537259    -3.5460623    -2.9023438
H           5.0736178    -3.5668558    -2.7302745
H           6.0895520    -3.2878877    -1.3109720
O           7.0132616    -0.9853560    -2.9181973
21
327_C8H10N2O_10-11-15-16 (120,) energy =    -495.6068870
N           2.4445260    -0.7081323    -0.8819970
H           2.2307802    -0.3443950    -1.8097831
H           1.6101979    -0.6227725    -0.3090853
C           5.8225346     1.1756534     0.8105578
H           6.7026949     1.6593973     1.2246601
C           4.5885372     1.2963889     1.4479815
H           4.4943733     1.8722949     2.3641296
C           3.4601784     0.6977892     0.8849364
H           2.4861381     0.8116864     1.3569479
C           3.5579929    -0.0445612    -0.2931899
C           4.8219502    -0.2074883    -0.9028934
N           4.8629469    -1.0432157    -2.0520412
H           4.0618158    -1.6723138    -2.0189054
C           5.9417751     0.4344667    -0.3664459
H           6.8940526     0.3396017    -0.8734547
C           6.0255149    -1.6853052    -2.4996058
C           5.9365962    -3.2022006    -2.5458547
H           6.7540263    -3.6016067    -3.1488206
H           4.9794555    -3.5667940    -2.9368149
H           6.0384785    -3.5740233    -1.5188172
O           7.0689891    -1.0899987    -2.7002802
21
327_C8H10N2O_10-11-15-16 (135,) energy =    -495.6119840
N           2.4631858    -0.7432998    -0.8306477
H           2.2573985    -0.4188423    -1.7747349
H           1.6214956    -0.6390202    -0.2716965
C           5.8033736     1.2400046     0.8218717
H           6.6738290     1.7484381     1.2268334
C           4.5562630     1.3953952     1.4251402
H           4.4421280     2.0231915     2.3042270
C           3.4406436     0.7624723     0.8744649
H           2.4566043     0.9014723     1.3181070
C           3.5647790    -0.0457402    -0.2565303
C           4.8417258    -0.2414221    -0.8298240
N           4.9015947    -1.1469782    -1.9191698
H           4.0948937    -1.7668229    -1.8926004
C           5.9504345     0.4314010    -0.3066133
H           6.9130607     0.3055847    -0.7848639
C           6.0574516    -1.7376791    -2.4188429
C           5.9284971    -3.2272763    -2.6996652
H           6.7098569    -3.5352405    -3.3968229
H           4.9479743    -3.5076211    -3.1012803
H           6.0706426    -3.7668424    -1.7553351
O           7.1197280    -1.1470996    -2.5269941
21
327_C8H10N2O_10-11-15-16 (150,) energy =    -495.6155962
N           2.4788517    -0.7649188    -0.7863426
H           2.2984450    -0.4947478    -1.7525085
H           1.6251424    -0.6191376    -0.2555073
C           5.7934131     1.2935443     0.8251373
H           6.6576663     1.8194667     1.2209516
C           4.5314220     1.5019932     1.3792211
H           4.3994383     2.1894191     2.2099098
C           3.4249575     0.8425777     0.8413031
H           2.4302464     1.0207198     1.2453429
C           3.5727499    -0.0416760    -0.2279910
C           4.8633218    -0.2872630    -0.7506391
N           4.9395206    -1.2655689    -1.7691162
H           4.1281751    -1.8771031    -1.7547301
C           5.9652521     0.4065550    -0.2391418
H           6.9398750     0.2354785    -0.6758790
C           6.0840823    -1.8041014    -2.3292824
C           5.9201813    -3.2367727    -2.8172583
H           6.6504587    -3.4323781    -3.6047169
H           4.9132230    -3.4535016    -3.1908392
H           6.1254985    -3.9174670    -1.9821754
O           7.1572897    -1.2219395    -2.3762893
21
327_C8H10N2O_10-11-15-16 (165,) energy =    -495.6174576
N           2.4956350    -0.7857337    -0.7524642
H           2.3451498    -0.5694860    -1.7372395
H           1.6293206    -0.5982488    -0.2561170
C           5.7853081     1.3366588     0.8280121
H           6.6432011     1.8772111     1.2178946
C           4.5081159     1.6022192     1.3192766
H           4.3575531     2.3490255     2.0936764
C           3.4110511     0.9196652     0.7911029
H           2.4060163     1.1400953     1.1456674
C           3.5821631    -0.0407963    -0.2064343
C           4.8860221    -0.3396082    -0.6651604
N           4.9816911    -1.3882783    -1.6049882
H           4.1586898    -1.9818229    -1.6106864
C           5.9811816     0.3708248    -0.1607398
H           6.9679235     0.1518353    -0.5448888
C           6.1060367    -1.8667292    -2.2419602
C           5.9110266    -3.2214402    -2.9103954
H           6.5270128    -3.2605823    -3.8113834
H           4.8690291    -3.4335132    -3.1723064
H           6.2609714    -4.0077315    -2.2309803
O           7.1839978    -1.2892450    -2.2565713
21
327_C8H10N2O_10-11-15-16 (180,) energy =    -495.6176832
N           2.5229039    -0.9836474    -0.5805859
H           2.3187689    -0.8444314    -1.5696602
H           1.6667020    -0.8151028    -0.0603535
C           5.7263290     1.4498469     0.7063539
H           6.5622705     2.0682064     1.0210640
C           4.4505196     1.6801609     1.2187595
H           4.2797487     2.4783643     1.9355366
C           3.3812832     0.8927116     0.7883476
H           2.3759825     1.0824760     1.1595229
C           3.5795631    -0.1353468    -0.1339584
C           4.8841397    -0.3927074    -0.6147458
N           5.0196838    -1.5065435    -1.4687263
H           4.2264518    -2.1364391    -1.4310742
C           5.9500135     0.4165496    -0.2050181
H           6.9364433     0.2211464    -0.6023261
C           6.0908259    -1.8610529    -2.2554174
C           5.8867718    -3.1409608    -3.0565109
H           6.6944741    -3.8394825    -2.8173858
H           5.9691220    -2.9022722    -4.1216332
H           4.9263326    -3.6341743    -2.8767230
O           7.1246494    -1.2123853    -2.3413813
