28
370_C11H15NO_0-5-6-10 (-165,) energy =    -558.1884901
C           0.0916756     0.9545605    -1.2590153
C          -1.3057953     0.9672533    -0.6212098
C          -1.5347475    -0.2801061     0.2443696
C          -0.4113368    -0.4440289     1.2775567
C           0.9820300    -0.4465078     0.6231163
C           1.1942817     0.8302883    -0.2031565
O           2.4283701     0.8391009    -0.9663475
C           6.0725202    -0.2180633     0.5461678
C           5.0273401     0.2228814     1.3492095
N           3.8154679     0.5642873     0.8823249
C           3.6081188     0.4534984    -0.4289853
C           4.5921660     0.0162662    -1.3352618
C           5.8393669    -0.3187390    -0.8313079
H           0.1844762     0.1020681    -1.9450449
H           0.2561046     1.8609532    -1.8542801
H          -1.4150904     1.8676173     0.0010463
H          -2.0697545     1.0377965    -1.4052919
H          -2.5098145    -0.2247054     0.7448756
H          -1.5636527    -1.1688143    -0.4030981
H          -0.4655754     0.3779223     2.0065967
H          -0.5473802    -1.3708487     1.8484937
H           1.7568548    -0.5361660     1.3862932
H           1.0750383    -1.3124300    -0.0484999
H           1.1984118     1.7029487     0.4633542
H           7.0336904    -0.4743051     0.9798977
H           5.1594028     0.3186593     2.4258619
H           4.3546840    -0.0467443    -2.3915227
H           6.6236712    -0.6605474    -1.5017120
28
370_C11H15NO_0-5-6-10 (-150,) energy =    -558.1850769
C           0.1247037     0.9352429    -1.2642017
C          -1.3069162     0.8646216    -0.7123653
C          -1.4906677    -0.3567105     0.1994885
C          -0.4239139    -0.3791047     1.3028220
C           1.0056591    -0.3011474     0.7358599
C           1.1680918     0.9472772    -0.1415555
O           2.4418585     1.0576043    -0.8326982
C           6.0458433    -0.3584594     0.4719683
C           5.0557342     0.0841380     1.3417701
N           3.8572722     0.5404721     0.9445601
C           3.6023219     0.5441482    -0.3635690
C           4.5290750     0.1165382    -1.3325657
C           5.7667426    -0.3349821    -0.8998923
H           0.3260755     0.0627745    -1.9003226
H           0.2569574     1.8240212    -1.8928769
H          -1.5249537     1.7801660    -0.1430279
H          -2.0230310     0.8382573    -1.5429496
H          -2.4958523    -0.3583289     0.6398568
H          -1.4093927    -1.2735610    -0.4026335
H          -0.5882580     0.4700492     1.9826287
H          -0.5221170    -1.2849145     1.9137767
H           1.7347801    -0.2918222     1.5471112
H           1.2091098    -1.1905845     0.1215083
H           1.0525224     1.8452952     0.4806450
H           7.0002998    -0.7084063     0.8518165
H           5.2258498     0.0866539     2.4173819
H           4.2564637     0.1508347    -2.3816156
H           6.5064795    -0.6723980    -1.6212646
28
370_C11H15NO_0-5-6-10 (-135,) energy =    -558.1822756
C           0.1815401     0.8980745    -1.2674911
C          -1.2765239     0.7624560    -0.8036052
C          -1.4416279    -0.4133211     0.1695717
C          -0.4525132    -0.2983184     1.3376780
C           1.0055083    -0.1621065     0.8599678
C           1.1453716     1.0384696    -0.0831206
O           2.4552580     1.2371386    -0.6853594
C           6.0069091    -0.4845484     0.3780461
C           5.0617113    -0.0773802     1.3133287
N           3.8812598     0.4759711     0.9951328
C           3.5942965     0.6157720    -0.2991013
C           4.4744765     0.2345688    -1.3288595
C           5.6975906    -0.3169259    -0.9766244
H           0.4776523     0.0082430    -1.8399692
H           0.3008143     1.7599892    -1.9346316
H          -1.5894695     1.6926145    -0.3067343
H          -1.9332339     0.6399004    -1.6737444
H          -2.4719222    -0.4584585     0.5447222
H          -1.2607684    -1.3560785    -0.3673812
H          -0.7148364     0.5777552     1.9491934
H          -0.5357697    -1.1700748     1.9983208
H           1.6796291    -0.0575394     1.7111025
H           1.3031282    -1.0744851     0.3229434
H           0.9211932     1.9578738     0.4747894
H           6.9505204    -0.9158038     0.6965645
H           5.2575505    -0.1853002     2.3791717
H           4.1789530     0.3807268    -2.3619682
H           6.4011714    -0.6208989    -1.7473739
28
370_C11H15NO_0-5-6-10 (-120,) energy =    -558.1815581
C           0.1569100     0.3487554    -1.3853147
C          -1.2878410     0.3945837    -0.8610929
C          -1.4092642    -0.2792913     0.5145005
C          -0.4078155     0.3159296     1.5167526
C           1.0378728     0.2249990     0.9924213
C           1.1279938     0.9371317    -0.3591441
O           2.4386386     1.0470168    -0.9813967
C           5.9238701    -0.7714940     0.1397724
C           4.6899796    -1.4092359     0.2088459
N           3.5278300    -0.8348124    -0.1375684
C           3.5637614     0.4335309    -0.5462374
C           4.7551560     1.1757589    -0.6484417
C           5.9473768     0.5553063    -0.3050766
H           0.4530354    -0.6890931    -1.5902192
H           0.2494482     0.9024862    -2.3267287
H          -1.6106998     1.4431440    -0.7790413
H          -1.9621066    -0.0813486    -1.5836341
H          -2.4333044    -0.1811533     0.8965279
H          -1.2145383    -1.3564140     0.4087046
H          -0.6678967     1.3674427     1.7096127
H          -0.4783809    -0.2029911     2.4805761
H           1.7329480     0.6814540     1.7079855
H           1.3328871    -0.8215048     0.8836188
H           0.8488003     1.9885022    -0.1946597
H           6.8328725    -1.2926755     0.4224336
H           4.6206668    -2.4421662     0.5469699
H           4.7133203     2.2040144    -0.9905157
H           6.8854934     1.0999299    -0.3745721
28
370_C11H15NO_0-5-6-10 (-105,) energy =    -558.1837482
C           0.2453660     0.3066375    -1.3628405
C          -1.2174044     0.2603058    -0.8896269
C          -1.3359773    -0.3463952     0.5172970
C          -0.4320459     0.3873986     1.5207912
C           1.0365459     0.3923836     1.0562218
C           1.1228650     1.0254147    -0.3345380
O           2.4530621     1.2371600    -0.8832127
C           5.8339945    -0.8707740     0.0276000
C           4.5682320    -1.4455543     0.0372756
N           3.4386762    -0.7770754    -0.2442968
C           3.5437095     0.5219037    -0.5250287
C           4.7733224     1.2062147    -0.5589843
C           5.9289442     0.4911569    -0.2829613
H           0.6308880    -0.7119146    -1.5029534
H           0.3285561     0.8210364    -2.3271525
H          -1.6272321     1.2813626    -0.8774333
H          -1.8237843    -0.3081908    -1.6054365
H          -2.3794861    -0.3184775     0.8557583
H          -1.0451241    -1.4062491     0.4801751
H          -0.7873546     1.4216102     1.6417062
H          -0.5004810    -0.0821191     2.5098145
H           1.6613338     0.9549973     1.7616533
H           1.4199470    -0.6302899     1.0255533
H           0.7525142     2.0566464    -0.2454517
H           6.7134764    -1.4649559     0.2538081
H           4.4426945    -2.5017257     0.2711064
H           4.7872695     2.2640269    -0.7973933
H           6.8951467     0.9887348    -0.3013016
28
370_C11H15NO_0-5-6-10 (-90,) energy =    -558.1863239
C           0.3581660     0.2839446    -1.3150137
C          -1.1218816     0.1546826    -0.9152853
C          -1.2764628    -0.4075650     0.5069125
C          -0.4870014     0.4281086     1.5274599
C           1.0008874     0.5278826     1.1430346
C           1.1225082     1.1032042    -0.2707829
O           2.4715002     1.4016191    -0.7199734
C           5.7560077    -0.9491062    -0.0965907
C           4.4614119    -1.4529660    -0.0693701
N           3.3613344    -0.7068003    -0.2611549
C           3.5298444     0.5982383    -0.4706165
C           4.7949170     1.2156881    -0.5155167
C           5.9163058     0.4229834    -0.3289965
H           0.8175725    -0.7089642    -1.3922987
H           0.4569943     0.7680031    -2.2937267
H          -1.6003408     1.1443873    -0.9646910
H          -1.6486124    -0.4802639    -1.6382734
H          -2.3370495    -0.4433754     0.7866584
H          -0.9095206    -1.4438915     0.5288375
H          -0.9236659     1.4364063     1.5851157
H          -0.5780599    -0.0073607     2.5301623
H           1.5405372     1.1705296     1.8503004
H           1.4598649    -0.4631695     1.1816136
H           0.6796424     2.1083748    -0.2529354
H           6.6081197    -1.6030685     0.0576958
H           4.2840262    -2.5128894     0.1063498
H           4.8602734     2.2837145    -0.6916949
H           6.9078905     0.8672641    -0.3575434
28
370_C11H15NO_0-5-6-10 (-75,) energy =    -558.1881806
C           0.4824628     0.2700529    -1.2475688
C          -1.0168224     0.0900999    -0.9502842
C          -1.2501867    -0.4489403     0.4701033
C          -0.5753272     0.4431940     1.5243390
C           0.9287371     0.6108906     1.2416067
C           1.1288576     1.1557506    -0.1766148
O           2.4994579     1.5096316    -0.4969523
C           5.7141115    -1.0005007    -0.2322008
C           4.4071353    -1.4501412    -0.1006521
N           3.3271680    -0.6540343    -0.1777210
C           3.5318210     0.6451637    -0.3844669
C           4.8148930     1.2106785    -0.5315160
C           5.9120311     0.3692777    -0.4546095
H           0.9836400    -0.7034779    -1.2584236
H           0.6303102     0.7291356    -2.2325809
H          -1.5302123     1.0575383    -1.0573505
H          -1.4641012    -0.5817179    -1.6932686
H          -2.3258148    -0.5274936     0.6732514
H          -0.8403604    -1.4666867     0.5427680
H          -1.0624247     1.4298927     1.5281143
H          -0.7170244     0.0236414     2.5279901
H           1.3838332     1.2995897     1.9644815
H           1.4349649    -0.3533701     1.3388796
H           0.6454027     2.1402863    -0.2238865
H           6.5475826    -1.6919503    -0.1638638
H           4.1992808    -2.5048451     0.0727286
H           4.9103736     2.2779313    -0.6984681
H           6.9154962     0.7725467    -0.5634244
28
370_C11H15NO_0-5-6-10 (-60,) energy =    -558.1884974
C           0.8881187     1.0975059     0.9574392
C          -0.6383835     1.2968269     0.9579581
C          -1.2922434     0.6452531    -0.2709939
C          -0.9274522    -0.8443000    -0.3729156
C           0.5973382    -1.0530697    -0.3730083
C           1.2174302    -0.3970206     0.8663834
O           2.6289434    -0.6974615     1.0192694
C           5.6275919     0.6714683    -1.3974568
C           4.2878886     0.9199302    -1.6629593
N           3.2755293     0.4885543    -0.8911936
C           3.5848253    -0.2158407     0.1950846
C           4.9107173    -0.5267663     0.5614047
C           5.9363613    -0.0741625    -0.2510660
H           1.3325680     1.6198448     0.1056573
H           1.3320044     1.5134971     1.8705949
H          -1.0669726     0.8570051     1.8710825
H          -0.8703727     2.3685016     0.9919100
H          -2.3821808     0.7665801    -0.2291446
H          -0.9517381     1.1638221    -1.1788211
H          -1.3718369    -1.3834955     0.4772646
H          -1.3614414    -1.2839632    -1.2794491
H           0.8417819    -2.1224575    -0.3776539
H           1.0371802    -0.6096413    -1.2716654
H           0.8014982    -0.8894599     1.7544672
H           6.4024036     1.0449136    -2.0589946
H           3.9946005     1.4938088    -2.5406139
H           5.0925340    -1.1056880     1.4601742
H           6.9696959    -0.2961788     0.0026004
28
370_C11H15NO_0-5-6-10 (-45,) energy =    -558.1871924
C           0.9538093     1.0357842     0.8562295
C          -0.5585365     1.3097303     0.9484724
C          -1.3176333     0.6669772    -0.2230914
C          -1.0322341    -0.8403904    -0.3118814
C           0.4779878    -1.1264798    -0.3803318
C           1.2015318    -0.4761114     0.8052652
O           2.5980349    -0.8724934     0.8537999
C           5.6397090     0.7859129    -1.3147255
C           4.3048161     0.9394652    -1.6664730
N           3.2803230     0.4154857    -0.9732376
C           3.5697821    -0.2788519     0.1261132
C           4.8872215    -0.4951714     0.5770097
C           5.9278928     0.0449917    -0.1608652
H           1.3612020     1.5038730    -0.0431192
H           1.4762518     1.4667051     1.7200967
H          -0.9498952     0.9116150     1.8966946
H          -0.7349716     2.3922427     0.9703288
H          -2.3957611     0.8439108    -0.1195085
H          -1.0075224     1.1497041    -1.1610956
H          -1.4589179    -1.3410153     0.5703331
H          -1.5328414    -1.2744278    -1.1862227
H           0.6682137    -2.2065506    -0.3710454
H           0.8981593    -0.7268423    -1.3100399
H           0.8169194    -0.9196367     1.7322216
H           6.4259546     1.2277398    -1.9181463
H           4.0282183     1.5054823    -2.5546376
H           5.0525106    -1.0714164     1.4806684
H           6.9560399    -0.1029410     0.1592233
28
370_C11H15NO_0-5-6-10 (-30,) energy =    -558.1848416
C           1.0000635     0.9943479     0.7309379
C          -0.4922525     1.3202173     0.9267379
C          -1.3564489     0.6638756    -0.1613771
C          -1.1230891    -0.8538148    -0.2166794
C           0.3695397    -1.1902862    -0.3730023
C           1.1974873    -0.5251723     0.7331190
O           2.5732752    -0.9917455     0.6663393
C           5.6901873     0.8700458    -1.2108354
C           4.3752430     0.9932013    -1.6443036
N           3.3288528     0.4050498    -1.0430931
C           3.5715075    -0.3203485     0.0487998
C           4.8626557    -0.5087895     0.5772470
C           5.9302919     0.0937677    -0.0705007
H           1.3486505     1.4082260    -0.2178855
H           1.5998492     1.4510485     1.5291165
H          -0.8229484     0.9689356     1.9156114
H          -0.6324964     2.4081880     0.9211554
H          -2.4180007     0.8793135     0.0147803
H          -1.1028133     1.1048695    -1.1362141
H          -1.5037165    -1.3114531     0.7088206
H          -1.6942238    -1.3003147    -1.0400128
H           0.5283335    -2.2747415    -0.3403706
H           0.7406605    -0.8355457    -1.3425489
H           0.8685609    -0.9172750     1.7040652
H           6.4972216     1.3617422    -1.7443120
H           4.1374177     1.5847632    -2.5271166
H           4.9897213    -1.1135887     1.4683322
H           6.9402720    -0.0320669     0.3110114
28
370_C11H15NO_0-5-6-10 (-15,) energy =    -558.1825101
C           1.0109865     0.9915892     0.5653197
C          -0.4581840     1.3371127     0.8726655
C          -1.4160125     0.6339059    -0.1017591
C          -1.1929207    -0.8862876    -0.1000364
C           0.2807128    -1.2399900    -0.3602584
C           1.2012401    -0.5264051     0.6355332
O           2.5541976    -1.0315149     0.4580272
C           5.7785114     0.9454573    -1.0926775
C           4.4880573     1.1178886    -1.5812369
N           3.4083057     0.4950550    -1.0840118
C           3.5885618    -0.3162609    -0.0413830
C           4.8489196    -0.5597079     0.5354173
C           5.9540449     0.0791317    -0.0074398
H           1.2797166     1.3510386    -0.4306176
H           1.6778663     1.4906873     1.2801898
H          -0.7028247     1.0385745     1.9030022
H          -0.5946479     2.4244497     0.8240765
H          -2.4575747     0.8659593     0.1543197
H          -1.2464730     1.0236866    -1.1159005
H          -1.4970169    -1.2947951     0.8753013
H          -1.8309085    -1.3694556    -0.8502661
H           0.4400530    -2.3222758    -0.2880552
H           0.5714638    -0.9369808    -1.3747978
H           0.9478001    -0.8588966     1.6515111
H           6.6155966     1.4682837    -1.5440427
H           4.3010558     1.7799821    -2.4254369
H           4.9252554    -1.2342216     1.3811290
H           6.9420679    -0.0881400     0.4136488
28
370_C11H15NO_0-5-6-10 (0,) energy =    -558.1808891
C           0.9219840     1.0906791     0.1593631
C          -0.5816216     1.4115119     0.2596018
C          -1.4556861     0.3091883    -0.3553030
C          -1.1434924    -1.0550798     0.2763978
C           0.3561528    -1.3782905     0.1895231
C           1.2094066    -0.2659510     0.8087498
O           2.5828813    -0.7469958     0.7719261
C           5.8933782     1.0653879    -0.8012693
C           4.9363177     1.7589096    -0.0681604
N           3.8324397     1.1960975     0.4464348
C           3.6342263    -0.1011792     0.2132160
C           4.5345567    -0.8971686    -0.5192961
C           5.6800098    -0.2994776    -1.0246473
H           1.2185283     1.0593240    -0.8987657
H           1.5187486     1.8718136     0.6318434
H          -0.8539929     1.5404254     1.3176876
H          -0.7786352     2.3740336    -0.2282253
H          -2.5186258     0.5527732    -0.2324355
H          -1.2677572     0.2589676    -1.4379186
H          -1.4536267    -1.0456765     1.3317465
H          -1.7237963    -1.8487742    -0.2101380
H           0.5830237    -2.3259951     0.6913773
H           0.6531360    -1.4940698    -0.8625615
H           0.9685333    -0.1881126     1.8782703
H           6.7735859     1.5732094    -1.1823599
H           5.0593594     2.8220000     0.1339285
H           4.3140683    -1.9484044    -0.6687524
H           6.3963902    -0.8866773    -1.5934250
28
370_C11H15NO_0-5-6-10 (15,) energy =    -558.1828034
C           0.9295906     1.0250682     0.0181178
C          -0.5544754     1.4003275     0.1907485
C          -1.4980793     0.2841181    -0.2792928
C          -1.1799680    -1.0394168     0.4314312
C           0.2991809    -1.4188186     0.2633503
C           1.2242275    -0.2947170     0.7371505
O           2.5728845    -0.8235908     0.6024699
C           5.9263597     1.1412396    -0.6628047
C           4.9529941     1.7497455     0.1220066
N           3.8347578     1.1363920     0.5397912
C           3.6409946    -0.1243909     0.1526156
C           4.5575704    -0.8350703    -0.6444861
C           5.7158570    -0.1877070    -1.0484897
H           1.1568573     0.9117129    -1.0523343
H           1.5747481     1.8158803     0.4020794
H          -0.7507911     1.6160492     1.2514802
H          -0.7578691     2.3300179    -0.3547541
H          -2.5430096     0.5699624    -0.1040936
H          -1.3871149     0.1482184    -1.3651695
H          -1.4124500    -0.9412989     1.5020752
H          -1.8163186    -1.8468191     0.0486944
H           0.5351857    -2.3358329     0.8156242
H           0.5165668    -1.6182917    -0.7953320
H           1.0700937    -0.1349443     1.8143634
H           6.8167092     1.6854794    -0.9609598
H           5.0727190     2.7816277     0.4489523
H           4.3389398    -1.8609357    -0.9198090
H           6.4451716    -0.7081510    -1.6638815
28
370_C11H15NO_0-5-6-10 (30,) energy =    -558.1855653
C           0.9160097     0.9701136    -0.1490093
C          -0.5390439     1.4007389     0.1146108
C          -1.5446636     0.2863271    -0.2084639
C          -1.2041271    -1.0011376     0.5565024
C           0.2456692    -1.4369096     0.2950570
C           1.2333234    -0.3156160     0.6216868
O           2.5468979    -0.8881592     0.3821394
C           5.9617398     1.1659770    -0.5189806
C           4.9488770     1.7047322     0.2660425
N           3.8097860     1.0609807     0.5670630
C           3.6395761    -0.1593726     0.0593280
C           4.5970510    -0.8003237    -0.7491696
C           5.7728378    -0.1226517    -1.0333597
H           1.0564365     0.7859834    -1.2247305
H           1.6078031     1.7615746     0.1407771
H          -0.6441723     1.6866126     1.1716522
H          -0.7626021     2.3009845    -0.4709669
H          -2.5646949     0.6132145     0.0302735
H          -1.5249412     0.0815095    -1.2890053
H          -1.3464404    -0.8315862     1.6339142
H          -1.8903280    -1.8097901     0.2763727
H           0.5012788    -2.3260238     0.8832430
H           0.3705416    -1.7069742    -0.7627246
H           1.1788449    -0.0882081     1.6967324
H           6.8654526     1.7317321    -0.7213238
H           5.0498631     2.7026442     0.6901134
H           4.3945398    -1.7970678    -1.1253051
H           6.5337782    -0.5880321    -1.6545209
28
370_C11H15NO_0-5-6-10 (45,) energy =    -558.1888502
C           0.8913252     0.9267837    -0.3192350
C          -0.5259534     1.4055480     0.0451355
C          -1.5732332     0.2950340    -0.1234789
C          -1.1862020    -0.9557192     0.6799679
C           0.2268758    -1.4381825     0.3175168
C           1.2549787    -0.3212491     0.4929855
O           2.5293238    -0.9185394     0.1421975
C           5.9928203     1.1865938    -0.3643053
C           4.9310301     1.6629954     0.3953576
N           3.7758932     1.0003731     0.5684122
C           3.6440810    -0.1759384    -0.0428831
C           4.6520371    -0.7536005    -0.8376235
C           5.8401364    -0.0564006    -0.9918426
H           0.9322558     0.6754766    -1.3896596
H           1.6197528     1.7179297    -0.1366606
H          -0.5320668     1.7526324     1.0889297
H          -0.7867508     2.2755669    -0.5700153
H          -2.5626883     0.6547891     0.1861953
H          -1.6538860     0.0308685    -1.1881904
H          -1.2285813    -0.7238648     1.7543137
H          -1.9086071    -1.7630919     0.5081101
H           0.5176793    -2.2992181     0.9306820
H           0.2523249    -1.7686940    -0.7300661
H           1.3089309    -0.0354861     1.5535742
H           6.9057580     1.7648059    -0.4635209
H           5.0013960     2.6236700     0.9032403
H           4.4774822    -1.7172099    -1.3034838
H           6.6404195    -0.4717857    -1.5988125
28
370_C11H15NO_0-5-6-10 (60,) energy =    -558.1918149
C           0.8248344     0.9005937    -0.4758675
C          -0.5509416     1.4070810    -0.0075252
C          -1.6109509     0.2957756    -0.0370499
C          -1.1568461    -0.9251500     0.7776858
C           0.2168408    -1.4329157     0.3112645
C           1.2578193    -0.3156080     0.3504438
O           2.4893890    -0.9130351    -0.1232608
C           6.0152371     1.1468385    -0.2042899
C           4.9011951     1.5963887     0.4932346
N           3.7258911     0.9467168     0.5283198
C           3.6317357    -0.1906547    -0.1572574
C           4.6943175    -0.7399984    -0.9002546
C           5.8984516    -0.0548288    -0.9159822
H           0.7693812     0.6018545    -1.5329531
H           1.5728505     1.6917600    -0.3930987
H          -0.4630196     1.7965743     1.0173968
H          -0.8640221     2.2523521    -0.6327701
H          -2.5681797     0.6723767     0.3453478
H          -1.7870981    -0.0096133    -1.0789789
H          -1.1018706    -0.6504118     1.8413038
H          -1.8949460    -1.7332462     0.7038257
H           0.5567657    -2.2706951     0.9314700
H           0.1470832    -1.8061735    -0.7198260
H           1.4207148     0.0065905     1.3877755
H           6.9404408     1.7137988    -0.1947384
H           4.9409696     2.5245409     1.0612796
H           4.5473220    -1.6727529    -1.4336056
H           6.7409795    -0.4480398    -1.4789390
28
370_C11H15NO_0-5-6-10 (75,) energy =    -558.1936720
C           0.7243609     0.9169282    -0.6105300
C          -0.6174392     1.4118892    -0.0436801
C          -1.6463077     0.2749700     0.0518564
C          -1.0933428    -0.9090282     0.8604078
C           0.2483153    -1.4020240     0.2940749
C           1.2593072    -0.2594100     0.2122319
O           2.4543858    -0.8219708    -0.3801694
C           6.0527615     1.0837030    -0.0592077
C           4.9016219     1.5481114     0.5632651
N           3.7035326     0.9471224     0.4686807
C           3.6269381    -0.1583513    -0.2679345
C           4.7276153    -0.7193717    -0.9448592
C           5.9519188    -0.0818635    -0.8319125
H           0.5886123     0.5800343    -1.6481901
H           1.4618075     1.7245677    -0.6187177
H          -0.4530695     1.8373057     0.9572182
H          -1.0043636     2.2278758    -0.6665130
H          -2.5770551     0.6406150     0.5038938
H          -1.9027062    -0.0674567    -0.9615234
H          -0.9546848    -0.5991124     1.9066400
H          -1.8152990    -1.7348106     0.8748035
H           0.6589819    -2.2118123     0.9087552
H           0.1002430    -1.8103214    -0.7152844
H           1.5130479     0.0934395     1.2188757
H           6.9941057     1.6118998     0.0518997
H           4.9267515     2.4497467     1.1732579
H           4.5926188    -1.6240310    -1.5275553
H           6.8241194    -0.4852652    -1.3397648
28
370_C11H15NO_0-5-6-10 (90,) energy =    -558.1937723
C           0.5993793     0.9598946    -0.7196302
C          -0.7249557     1.4082228    -0.0786352
C          -1.6815824     0.2234809     0.1260413
C          -1.0117139    -0.8989934     0.9339919
C           0.3129827    -1.3439461     0.2920493
C           1.2546272    -0.1548205     0.1002696
O           2.4249201    -0.6611565    -0.5861224
C           6.1066550     0.9809383     0.0735725
C           4.9491687     1.4794721     0.6564683
N           3.7256137     0.9623005     0.4544649
C           3.6290679    -0.0938232    -0.3485555
C           4.7340703    -0.6831905    -0.9937307
C           5.9843504    -0.1299218    -0.7732764
H           0.4141784     0.5799189    -1.7340788
H           1.2933428     1.8029109    -0.8071606
H          -0.5167131     1.8783193     0.8936621
H          -1.1967743     2.1790907    -0.7004457
H          -2.5984165     0.5569302     0.6285025
H          -1.9862783    -0.1695431    -0.8550991
H          -0.8186378    -0.5425709     1.9565389
H          -1.6857986    -1.7593633     1.0276552
H           0.8066211    -2.1080310     0.9044000
H           0.1179921    -1.7978539    -0.6895137
H           1.5694969     0.2422710     1.0704172
H           7.0689861     1.4421070     0.2702488
H           4.9898484     2.3415655     1.3204155
H           4.5820799    -1.5441500    -1.6354650
H           6.8606894    -0.5579610    -1.2530771
28
370_C11H15NO_0-5-6-10 (105,) energy =    -558.1930632
C           0.4705238     0.9777126    -0.8482234
C          -0.8515521     1.3808443    -0.1736180
C          -1.7094033     0.1512169     0.1627119
C          -0.9237864    -0.8594544     1.0128662
C           0.3983829    -1.2591496     0.3364241
C           1.2424891    -0.0253453     0.0122165
O           2.4070433    -0.4825471    -0.7192393
C           6.1625432     0.8348404     0.2062731
C           5.0227183     1.3294997     0.8261169
N           3.7764070     0.9168803     0.5412755
C           3.6358689    -0.0261178    -0.3856824
C           4.7200954    -0.5996957    -1.0790782
C           5.9953898    -0.1556633    -0.7720689
H           0.2671501     0.5145067    -1.8237306
H           1.0971159     1.8583586    -1.0327136
H          -0.6334047     1.9342281     0.7515293
H          -1.4059947     2.0693925    -0.8232178
H          -2.6237970     0.4574684     0.6864093
H          -2.0296722    -0.3333083    -0.7714100
H          -0.7094473    -0.4153130     1.9960725
H          -1.5293807    -1.7543539     1.2022681
H           0.9733668    -1.9397954     0.9758516
H           0.1914227    -1.7973746    -0.5990234
H           1.5804038     0.4588603     0.9320616
H           7.1454189     1.2081733     0.4745596
H           5.0979615     2.1005891     1.5913126
H           4.5329260    -1.3652287    -1.8241187
H           6.8560887    -0.5758714    -1.2859343
28
370_C11H15NO_0-5-6-10 (120,) energy =    -558.1928450
C           0.3590777     0.9505781    -0.9949499
C          -0.9638212     1.3303353    -0.3083356
C          -1.7147771     0.0871403     0.1933448
C          -0.8270693    -0.7670057     1.1118455
C           0.4959894    -1.1449596     0.4245326
C           1.2326546     0.1019930    -0.0688488
O           2.3987799    -0.3255588    -0.8161992
C           6.1948620     0.6552880     0.3382474
C           5.0718608     1.0409525     1.0580336
N           3.8131447     0.7339591     0.7034556
C           3.6404040     0.0190431    -0.4039017
C           4.7052387    -0.4263894    -1.2124252
C           5.9942233    -0.0985944    -0.8269667
H           0.1539654     0.3741275    -1.9078142
H           0.9114529     1.8476755    -1.2997318
H          -0.7540136     1.9942561     0.5431267
H          -1.5914742     1.9038702    -1.0015772
H          -2.6307442     0.3838968     0.7197506
H          -2.0303991    -0.5176834    -0.6695267
H          -0.6111276    -0.2041277     2.0317959
H          -1.3580435    -1.6756289     1.4216066
H           1.1438545    -1.7063943     1.1084735
H           0.2962476    -1.7971714    -0.4371048
H           1.5691464     0.6991972     0.7820366
H           7.1895226     0.9316642     0.6724006
H           5.1722515     1.6274090     1.9700507
H           4.4926632    -1.0061470    -2.1039805
H           6.8402384    -0.4248964    -1.4263047
28
370_C11H15NO_0-5-6-10 (135,) energy =    -558.1931328
C           0.2558447     0.9168895    -1.1247285
C          -1.0610361     1.2693518    -0.4124687
C          -1.6962508     0.0332378     0.2437252
C          -0.7103444    -0.6603794     1.1968464
C           0.6068224    -1.0136933     0.4855274
C           1.2250793     0.2248884    -0.1658668
O           2.3883181    -0.1655104    -0.9363338
C           6.1772457     0.4684829     0.4555644
C           5.0467215     0.7431739     1.2134844
N           3.7900523     0.5429007     0.7827799
C           3.6284515     0.0594729    -0.4454795
C           4.7014084    -0.2560515    -1.3024747
C           5.9879150    -0.0456480    -0.8351813
H           0.0543961     0.2427249    -1.9689512
H           0.7288142     1.8152735    -1.5391250
H          -0.8650806     2.0276434     0.3598597
H          -1.7582844     1.7261032    -1.1256684
H          -2.6090404     0.3174014     0.7824796
H          -2.0019282    -0.6756365    -0.5398650
H          -0.4975649     0.0063521     2.0453140
H          -1.1596722    -1.5671727     1.6202717
H           1.3244160    -1.4513562     1.1893445
H           0.4204570    -1.7630512    -0.2964541
H           1.5474083     0.9229179     0.6116288
H           7.1697459     0.6469616     0.8561799
H           5.1388698     1.1419376     2.2225766
H           4.4971982    -0.6480583    -2.2928345
H           6.8406798    -0.2764794    -1.4683550
28
370_C11H15NO_0-5-6-10 (150,) energy =    -558.1938072
C           0.1678270     0.9118024    -1.2070539
C          -1.1489895     1.2084612    -0.4703074
C          -1.6610833    -0.0249919     0.2899814
C          -0.5905685    -0.5729975     1.2462810
C           0.7265126    -0.8696662     0.5092885
C           1.2221252     0.3679156    -0.2432790
O           2.3841505     0.0421200    -1.0436299
C           6.1426861     0.2842946     0.5372439
C           4.9991020     0.5308881     1.2851543
N           3.7512465     0.4544483     0.7926782
C           3.6145498     0.1281313    -0.4897432
C           4.7022334    -0.1438182    -1.3428304
C           5.9784683    -0.0624071    -0.8114613
H          -0.0053928     0.1654030    -1.9947474
H           0.5516637     1.8128302    -1.7002183
H          -0.9897836     2.0313781     0.2420233
H          -1.9031498     1.5592100    -1.1855634
H          -2.5748087     0.2241357     0.8443337
H          -1.9357191    -0.8073089    -0.4328637
H          -0.4036629     0.1636001     2.0414106
H          -0.9503695    -1.4816594     1.7446495
H           1.4985389    -1.2012820     1.2117679
H           0.5735562    -1.6792221    -0.2181532
H           1.5090445     1.1397264     0.4783220
H           7.1264978     0.3575965     0.9890916
H           5.0722847     0.8018868     2.3372464
H           4.5172130    -0.4037529    -2.3793588
H           6.8426023    -0.2644398    -1.4390288
28
370_C11H15NO_0-5-6-10 (165,) energy =    -558.1935769
C           0.1009167     0.9263223    -1.2482911
C          -1.2290408     1.1327776    -0.5053548
C          -1.6225788    -0.1131936     0.3029321
C          -0.4929111    -0.5378113     1.2532455
C           0.8346901    -0.7389363     0.5025478
C           1.2140344     0.5227664    -0.2811469
O           2.3879593     0.3039040    -1.0996152
C           6.1091085     0.1196827     0.5742887
C           4.9715622     0.4251795     1.3098544
N           3.7347592     0.4845350     0.7880449
C           3.6036040     0.2330358    -0.5120453
C           4.6855544    -0.0884441    -1.3548480
C           5.9506755    -0.1427064    -0.7938177
H          -0.0097092     0.1329011    -2.0001448
H           0.3931866     1.8363612    -1.7858445
H          -1.1359142     1.9917676     0.1753267
H          -2.0180124     1.3899787    -1.2228132
H          -2.5447909     0.0758891     0.8669332
H          -1.8418731    -0.9388732    -0.3899546
H          -0.3588579     0.2334366     2.0259035
H          -0.7629482    -1.4606017     1.7814927
H           1.6368635    -0.9940460     1.2008528
H           0.7376445    -1.5701967    -0.2101742
H           1.4300979     1.3374368     0.4196727
H           7.0837172     0.0852696     1.0501280
H           5.0410006     0.6356522     2.3759450
H           4.5052870    -0.2808921    -2.4068158
H           6.8100913    -0.3873332    -1.4126420
28
370_C11H15NO_0-5-6-10 (180,) energy =    -558.1915708
C           0.0761510     0.9488307    -1.2590978
C          -1.2835268     1.0536959    -0.5507360
C          -1.5796857    -0.2015750     0.2833163
C          -0.4315280    -0.4985201     1.2587388
C           0.9239540    -0.5938436     0.5366377
C           1.2065647     0.6863169    -0.2618452
O           2.4040583     0.5833898    -1.0708703
C           6.0881536    -0.0487899     0.5752774
C           4.9877442     0.3403919     1.3286786
N           3.7626923     0.5443240     0.8166864
C           3.6030097     0.3498017    -0.4907100
C           4.6455367    -0.0458293    -1.3504065
C           5.9016774    -0.2434364    -0.7999589
H           0.0601935     0.1220091    -1.9819133
H           0.2914379     1.8627972    -1.8258273
H          -1.2848032     1.9354969     0.1067096
H          -2.0751279     1.2186329    -1.2920356
H          -2.5240950    -0.0822924     0.8293927
H          -1.7128068    -1.0602701    -0.3910593
H          -0.3824073     0.2979681     2.0157755
H          -0.6233566    -1.4307438     1.8043437
H           1.7261253    -0.7711799     1.2564404
H           0.9126186    -1.4401759    -0.1651739
H           1.3264607     1.5319191     0.4269246
H           7.0557211    -0.1964763     1.0438331
H           5.0809594     0.5042449     2.4011471
H           4.4439005    -0.1835354    -2.4070480
H           6.7309329    -0.5495947    -1.4324074
