28
370_C11H15NO_5-6-10-9 (-165,) energy =    -558.1854712
C           0.7500864     1.0596703     0.2153284
C          -0.4727766     0.9336409     1.1397610
C          -1.5858508     0.0972498     0.4901225
C          -1.0629625    -1.2779289     0.0465716
C           0.1622836    -1.1468679    -0.8721383
C           1.2651559    -0.3214150    -0.2071848
O           2.3226345    -0.2160104    -1.1750609
C           6.1373681     1.0356099    -0.3588892
C           5.5707356     0.9440916    -1.6294372
N           4.3164639     0.5476030    -1.8633922
C           3.5624747     0.2070896    -0.8163506
C           4.0269903     0.2638356     0.5104065
C           5.3355465     0.6851074     0.7273947
H           0.4775812     1.6093216    -0.6957190
H           1.5466640     1.6315152     0.7053890
H          -0.1689726     0.4609118     2.0857630
H          -0.8446792     1.9322854     1.3993638
H          -2.4259453    -0.0221399     1.1857104
H          -1.9768404     0.6352011    -0.3856726
H          -0.7920750    -1.8665699     0.9356850
H          -1.8518626    -1.8403018    -0.4674067
H           0.5597983    -2.1319312    -1.1422911
H          -0.1202549    -0.6488727    -1.8092206
H           1.6264085    -0.8714076     0.6745721
H           7.1615165     1.3697668    -0.2283994
H           6.1518808     1.2079429    -2.5122733
H           3.3962916    -0.0128543     1.3465879
H           5.7224001     0.7369512     1.7419615
28
370_C11H15NO_5-6-10-9 (-150,) energy =    -558.1844669
C           0.7999142     1.0277055     0.1645268
C          -0.4437766     0.9927980     1.0686719
C          -1.5735807     0.1622885     0.4406918
C          -1.0923603    -1.2523641     0.0824671
C           0.1535527    -1.2137238    -0.8168209
C           1.2715669    -0.3903653    -0.1764177
O           2.3492866    -0.3738535    -1.1298855
C           6.0791859     1.1349893    -0.3520702
C           5.4550017     1.1398511    -1.5980858
N           4.2257577     0.6628153    -1.8218254
C           3.5667855     0.1307685    -0.7918512
C           4.0986161     0.0703443     0.5086203
C           5.3736789     0.5849984     0.7192839
H           0.5669548     1.5416537    -0.7777662
H           1.6090564     1.5910478     0.6442035
H          -0.1748241     0.5605146     2.0440699
H          -0.7848647     2.0159900     1.2680799
H          -2.4310962     0.1104224     1.1232336
H          -1.9272845     0.6654438    -0.4709198
H          -0.8592444    -1.8007847     1.0073060
H          -1.8912277    -1.8140968    -0.4166121
H           0.5213808    -2.2252645    -1.0243322
H          -0.0938260    -0.7591242    -1.7853318
H           1.5962695    -0.9018213     0.7423211
H           7.0758342     1.5459864    -0.2275167
H           5.9623035     1.5571431    -2.4670599
H           3.5412217    -0.3720446     1.3262256
H           5.8123668     0.5505783     1.7132753
28
370_C11H15NO_5-6-10-9 (-135,) energy =    -558.1833675
C           0.7805597     1.0608144     0.0537033
C          -0.4646914     1.0875395     0.9557319
C          -1.5802348     0.1882787     0.4009816
C          -1.0771580    -1.2454438     0.1712818
C           0.1711723    -1.2695867    -0.7255130
C           1.2739050    -0.3740444    -0.1617675
O           2.3553363    -0.4151712    -1.1128064
C           6.0529412     1.1605719    -0.3073790
C           5.3409863     1.3673064    -1.4870477
N           4.1209310     0.8693898    -1.7229553
C           3.5673175     0.1114098    -0.7770437
C           4.1986370    -0.1732141     0.4459635
C           5.4582566     0.3687114     0.6770948
H           0.5455258     1.4896456    -0.9295697
H           1.5828898     1.6718583     0.4848915
H          -0.1924525     0.7462511     1.9656902
H          -0.8215576     2.1190319     1.0642219
H          -2.4396493     0.1842720     1.0831355
H          -1.9376214     0.6031795    -0.5526748
H          -0.8390144    -1.7052814     1.1420134
H          -1.8662606    -1.8614077    -0.2768753
H           0.5544531    -2.2903407    -0.8396759
H          -0.0804211    -0.9087162    -1.7317160
H           1.6090019    -0.7911860     0.7999035
H           7.0356628     1.5996254    -0.1678032
H           5.7646938     1.9726231    -2.2873407
H           3.7248053    -0.8127899     1.1826476
H           5.9737595     0.1647325     1.6121037
28
370_C11H15NO_5-6-10-9 (-120,) energy =    -558.1828235
C           0.7065588     1.1266495    -0.1063032
C          -0.5235458     1.1928015     0.8144403
C          -1.5987853     0.1814475     0.3878293
C          -1.0249224    -1.2420620     0.3100466
C           0.2099120    -1.3051626    -0.6039394
C           1.2715462    -0.2962914    -0.1692736
O           2.3469154    -0.3802077    -1.1281709
C           6.0497330     1.1241148    -0.2183816
C           5.2548387     1.5813953    -1.2667608
N           4.0321991     1.1057425    -1.5418481
C           3.5658825     0.1239326    -0.7728867
C           4.2864504    -0.4231660     0.3018170
C           5.5457265     0.0950923     0.5810775
H           0.4337421     1.4283088    -1.1261832
H           1.4836545     1.8224813     0.2322288
H          -0.2178857     0.9813051     1.8500925
H          -0.9327474     2.2105119     0.8151499
H          -2.4463954     0.2108106     1.0840634
H          -1.9921030     0.4671055    -0.5986170
H          -0.7483610    -1.5760275     1.3212257
H          -1.7874635    -1.9438864    -0.0492343
H           0.6440249    -2.3119731    -0.6108706
H          -0.0764542    -1.0742161    -1.6388607
H           1.6518159    -0.5789616     0.8246723
H           7.0300586     1.5540957    -0.0386504
H           5.6093858     2.3765142    -1.9211099
H           3.8713675    -1.2425590     0.8796036
H           6.1323119    -0.3077516     1.4027233
28
370_C11H15NO_5-6-10-9 (-105,) energy =    -558.1825952
C           0.6844731     1.1408150    -0.2136082
C          -0.5460459     1.2605733     0.7014073
C          -1.6057129     0.2019332     0.3591603
C          -1.0093724    -1.2139017     0.3945180
C           0.2267912    -1.3303922    -0.5124118
C           1.2723329    -0.2731655    -0.1618760
O           2.3562244    -0.4248059    -1.1061872
C           6.0281012     1.1357632    -0.1681467
C           5.1420749     1.7277337    -1.0656491
N           3.9295787     1.2340532    -1.3556001
C           3.5670128     0.1035126    -0.7524267
C           4.3818835    -0.5803660     0.1630220
C           5.6318324    -0.0479341     0.4591498
H           0.4051081     1.3532656    -1.2540030
H           1.4494577     1.8754875     0.0622265
H          -0.2365795     1.1373993     1.7501694
H          -0.9713011     2.2685781     0.6216416
H          -2.4536163     0.2733264     1.0520691
H          -2.0037611     0.4015699    -0.6464041
H          -0.7273677    -1.4614027     1.4287793
H          -1.7605607    -1.9544342     0.0935232
H           0.6767913    -2.3275205    -0.4382501
H          -0.0627213    -1.1884748    -1.5625228
H           1.6614053    -0.4693915     0.8504573
H           6.9966865     1.5846829     0.0286000
H           5.4123076     2.6486138    -1.5803321
H           4.0357285    -1.5089447     0.6054022
H           6.2914276    -0.5533248     1.1597839
28
370_C11H15NO_5-6-10-9 (-90,) energy =    -558.1828550
C           0.6380292     1.1540071    -0.3162288
C          -0.6037836     1.3188243     0.5762543
C          -1.6260691     0.1987514     0.3293035
C          -0.9848324    -1.1870181     0.5015059
C           0.2637478    -1.3479504    -0.3814927
C           1.2714712    -0.2279538    -0.1262789
O           2.3730128    -0.4370906    -1.0433679
C           6.0586070     1.0659337    -0.0677222
C           5.0887429     1.7959079    -0.7518904
N           3.8732448     1.3203453    -1.0580761
C           3.5865427     0.0759870    -0.6772772
C           4.4871105    -0.7470331     0.0147378
C           5.7442787    -0.2377520     0.3227654
H           0.3581540     1.2538822    -1.3735817
H           1.3780213     1.9349851    -0.1132593
H          -0.3001663     1.3053714     1.6338959
H          -1.0605169     2.3003607     0.3991415
H          -2.4823340     0.3064933     1.0071545
H          -2.0211198     0.2898551    -0.6930530
H          -0.7047769    -1.3267064     1.5562813
H          -1.7088438    -1.9771266     0.2670016
H           0.7442774    -2.3183242    -0.2087364
H          -0.0193692    -1.3166661    -1.4425456
H           1.6593477    -0.3163035     0.9012591
H           7.0281505     1.5040004     0.1479640
H           5.2934902     2.8146742    -1.0775771
H           4.1936033    -1.7570203     0.2810563
H           6.4692323    -0.8488710     0.8540892
28
370_C11H15NO_5-6-10-9 (-75,) energy =    -558.1840313
C           0.5452511     1.1754685    -0.4621690
C          -0.7111228     1.3689899     0.4035787
C          -1.6595011     0.1649516     0.2969011
C          -0.9335984    -1.1461359     0.6370132
C           0.3274903    -1.3354807    -0.2224305
C           1.2621017    -0.1311637    -0.1094247
O           2.3766151    -0.3738855    -1.0067646
C           6.1040182     0.9836924     0.0128019
C           5.0666490     1.8261215    -0.3811667
N           3.8380140     1.3971433    -0.7025035
C           3.6003021     0.0881570    -0.6164834
C           4.5698562    -0.8482652    -0.2291536
C           5.8430262    -0.3866621     0.0871553
H           0.2652498     1.1293494    -1.5237366
H           1.2402640     2.0135051    -0.3531015
H          -0.4145305     1.5035581     1.4547478
H          -1.2273742     2.2910386     0.1089920
H          -2.5250536     0.3004036     0.9578360
H          -2.0533401     0.1047242    -0.7282605
H          -0.6513481    -1.1371588     1.7003666
H          -1.6053071    -2.0031308     0.5029956
H           0.8658504    -2.2463432     0.0658325
H           0.0476239    -1.4513418    -1.2785827
H           1.6550513    -0.0694262     0.9165627
H           7.0829676     1.3882359     0.2501557
H           5.2266721     2.9007679    -0.4548447
H           4.3103898    -1.9007861    -0.1924241
H           6.6203590    -1.0843575     0.3876710
28
370_C11H15NO_5-6-10-9 (-60,) energy =    -558.1863800
C           0.4149659     1.1398657    -0.6229802
C          -0.8547148     1.3616939     0.2161566
C          -1.6953323     0.0794949     0.3165523
C          -0.8589160    -1.0914472     0.8553276
C           0.4085621    -1.3150590     0.0136043
C           1.2382564    -0.0339980    -0.0890493
O           2.3521893    -0.3021030    -0.9806917
C           6.1417375     0.7644384     0.1293350
C           5.0803645     1.6651035     0.0809262
N           3.8311494     1.3282490    -0.2690222
C           3.5953009     0.0467946    -0.5519354
C           4.5871494    -0.9451292    -0.5324302
C           5.8811732    -0.5713603    -0.1888966
H           0.1404832     0.9173994    -1.6637876
H           1.0432138     2.0362748    -0.6393379
H          -0.5718288     1.6887358     1.2278431
H          -1.4481648     2.1765784    -0.2166043
H          -2.5705470     0.2457263     0.9573563
H          -2.0805361    -0.1797192    -0.6805702
H          -0.5713982    -0.8802949     1.8961467
H          -1.4557513    -2.0116408     0.8803898
H           1.0232191    -2.1182119     0.4383431
H           0.1337537    -1.6271117    -1.0033063
H           1.6430931     0.2274110     0.8976463
H           7.1368971     1.0985685     0.4052761
H           5.2371855     2.7160560     0.3192945
H           4.3252599    -1.9672921    -0.7830132
H           6.6759642    -1.3123474    -0.1641404
28
370_C11H15NO_5-6-10-9 (-45,) energy =    -558.1892439
C           0.4462097     1.1353559    -0.6911851
C          -0.8402562     1.4028461     0.1080413
C          -1.6912848     0.1314891     0.2504366
C          -0.8749404    -1.0184714     0.8608539
C           0.4106649    -1.2855368     0.0598730
C           1.2488536    -0.0137591    -0.0776339
O           2.3850187    -0.3343106    -0.9218273
C           6.1383445     0.8885585     0.1358504
C           5.0109247     1.6905471     0.2852846
N           3.7703232     1.3038271    -0.0466002
C           3.6157745     0.0652605    -0.5136944
C           4.6808275    -0.8305570    -0.7031036
C           5.9598593    -0.4019661    -0.3742351
H           0.1933645     0.8631113    -1.7256396
H           1.0785538     2.0278532    -0.7343368
H          -0.5762295     1.7751902     1.1090218
H          -1.4193897     2.1997795    -0.3746384
H          -2.5783847     0.3332957     0.8641289
H          -2.0577882    -0.1721174    -0.7412224
H          -0.6113806    -0.7636222     1.8980818
H          -1.4778438    -1.9336662     0.9107859
H           1.0103422    -2.0724490     0.5333721
H           0.1558206    -1.6411978    -0.9479364
H           1.6282817     0.2962636     0.9038340
H           7.1208639     1.2604190     0.4082652
H           5.1005126     2.7026680     0.6769887
H           4.4818927    -1.8227671    -1.0930005
H           6.8089409    -1.0676567    -0.5058021
28
370_C11H15NO_5-6-10-9 (-30,) energy =    -558.1917240
C           0.5163470     1.0657285    -0.6922862
C          -0.7840311     1.4124709     0.0523132
C          -1.6902567     0.1818170     0.2098433
C          -0.9414721    -0.9766494     0.8871425
C           0.3581524    -1.3222998     0.1410332
C           1.2507552    -0.0896571    -0.0076899
O           2.4002524    -0.4945303    -0.7932953
C           6.1217694     0.9332737     0.1002821
C           4.9570452     1.6289026     0.4029699
N           3.7236921     1.1777133     0.1243003
C           3.6207163    -0.0192241    -0.4504776
C           4.7296510    -0.8109296    -0.7998945
C           5.9943204    -0.3165324    -0.5191062
H           0.2865381     0.7641459    -1.7239822
H           1.1826089     1.9324265    -0.7447262
H          -0.5377288     1.8103834     1.0478771
H          -1.3138457     2.2135550    -0.4778247
H          -2.5878377     0.4405249     0.7858051
H          -2.0364889    -0.1426193    -0.7825126
H          -0.7024826    -0.6956241     1.9235057
H          -1.5819658    -1.8652875     0.9472318
H           0.9091040    -2.1150382     0.6613886
H           0.1224259    -1.7029649    -0.8623491
H           1.6078255     0.2417025     0.9744314
H           7.0939660     1.3521873     0.3389311
H           5.0037425     2.6050167     0.8833803
H           4.5716283    -1.7759442    -1.2687925
H           6.8755043    -0.9002293    -0.7724242
28
370_C11H15NO_5-6-10-9 (-15,) energy =    -558.1933027
C           0.5812969     1.0018325    -0.6829416
C          -0.7357626     1.4150312    -0.0044294
C          -1.6873475     0.2197138     0.1570582
C          -1.0045433    -0.9370785     0.9033094
C           0.3116951    -1.3494238     0.2233166
C           1.2490604    -0.1512554     0.0714186
O           2.4120886    -0.6257615    -0.6504351
C           6.0991883     0.9804775     0.0633398
C           4.9251068     1.5680796     0.5162679
N           3.7004329     1.0614470     0.2960815
C           3.6200920    -0.0803578    -0.3826723
C           4.7423432    -0.7640920    -0.8890215
C           5.9937511    -0.2163516    -0.6589137
H           0.3831732     0.6713655    -1.7123375
H           1.2746028     1.8470809    -0.7367329
H          -0.5163110     1.8400146     0.9860945
H          -1.2172853     2.2129489    -0.5831994
H          -2.5984700     0.5265763     0.6861875
H          -2.0037083    -0.1282628    -0.8373182
H          -0.7977812    -0.6274167     1.9383976
H          -1.6756894    -1.8024920     0.9670766
H           0.8150682    -2.1396831     0.7931236
H           0.1038720    -1.7584404    -0.7751092
H           1.5780225     0.2022853     1.0549107
H           7.0616922     1.4391358     0.2651096
H           4.9530622     2.4989106     1.0805644
H           4.6026686    -1.6907031    -1.4349325
H           6.8835418    -0.7162436    -1.0327634
28
370_C11H15NO_5-6-10-9 (0,) energy =    -558.1938640
C           0.6563409     0.9410771    -0.6718058
C          -0.6755727     1.4121913    -0.0633563
C          -1.6665164     0.2489867     0.0956217
C          -1.0486820    -0.9005487     0.9069101
C           0.2833675    -1.3693701     0.2983726
C           1.2587420    -0.2017150     0.1507297
O           2.4375770    -0.7357026    -0.4985728
C           6.0827969     1.0347923     0.0137272
C           4.9252430     1.5183389     0.6089067
N           3.7127780     0.9602691     0.4534754
C           3.6283769    -0.1220857    -0.3154491
C           4.7344916    -0.6994991    -0.9694837
C           5.9730287    -0.1047588    -0.7959046
H           0.4915652     0.5794839    -1.6965920
H           1.3717121     1.7679865    -0.7254085
H          -0.4849915     1.8635928     0.9213502
H          -1.1096137     2.2031208    -0.6874873
H          -2.5898649     0.5979500     0.5751160
H          -1.9506968    -0.1230269    -0.8997781
H          -0.8779657    -0.5631971     1.9398407
H          -1.7458448    -1.7453271     0.9678277
H           0.7402159    -2.1530729     0.9143753
H           0.1071360    -1.8053957    -0.6947427
H           1.5517636     0.1755228     1.1364235
H           7.0356953     1.5288238     0.1729831
H           4.9564928     2.4013297     1.2452959
H           4.5923707    -1.5833136    -1.5817230
H           6.8499033    -0.5220542    -1.2840981
28
370_C11H15NO_5-6-10-9 (15,) energy =    -558.1933142
C           0.7154714     0.8818065    -0.6691179
C          -0.6305100     1.4014250    -0.1358746
C          -1.6493484     0.2631169     0.0279995
C          -1.0876121    -0.8638885     0.9088241
C           0.2593080    -1.3794926     0.3757432
C           1.2608414    -0.2352974     0.2253268
O           2.4568058    -0.8157235    -0.3481526
C           6.0619262     1.0771601    -0.0205782
C           4.9471680     1.4551314     0.7170432
N           3.7476472     0.8586944     0.6208758
C           3.6288632    -0.1474322    -0.2417092
C           4.6897257    -0.6136558    -1.0417663
C           5.9195707     0.0127420    -0.9214105
H           0.5856116     0.4803911    -1.6840459
H           1.4462889     1.6953888    -0.7288408
H          -0.4713265     1.8888225     0.8371179
H          -1.0232070     2.1739054    -0.8085822
H          -2.5841919     0.6478186     0.4549768
H          -1.9004550    -0.1432420    -0.9628363
H          -0.9533482    -0.4887351     1.9340327
H          -1.8028191    -1.6931362     0.9732721
H           0.6756381    -2.1458791     1.0402214
H           0.1164998    -1.8510437    -0.6064947
H           1.5154188     0.1758046     1.2079005
H           7.0074346     1.5956472     0.1004829
H           5.0064562     2.2773256     1.4285570
H           4.5214791    -1.4405112    -1.7230430
H           6.7615882    -0.3195066    -1.5231436
28
370_C11H15NO_5-6-10-9 (30,) energy =    -558.1917550
C           0.7403255     0.8180991    -0.7087569
C          -0.6124063     1.3782212    -0.2375102
C          -1.6407217     0.2568950    -0.0223390
C          -1.1038383    -0.8141800     0.9401094
C           0.2510379    -1.3687878     0.4697759
C           1.2612572    -0.2412912     0.2668209
O           2.4669530    -0.8569011    -0.2472798
C           6.0601634     1.0761121    -0.0050321
C           5.0136045     1.3183739     0.8776599
N           3.8202927     0.7085470     0.8097868
C           3.6305712    -0.1637059    -0.1775453
C           4.6160418    -0.4844125    -1.1285058
C           5.8467712     0.1472552    -1.0312631
H           0.6288184     0.3532870    -1.6984402
H           1.4769570     1.6238790    -0.8087008
H          -0.4699514     1.9256627     0.7056645
H          -0.9870626     2.1079160    -0.9659604
H          -2.5817280     0.6725427     0.3596500
H          -1.8739256    -0.2106359    -0.9903022
H          -0.9888426    -0.3750271     1.9419327
H          -1.8252404    -1.6342355     1.0419091
H           0.6499425    -2.0918027     1.1909603
H           0.1261213    -1.9023209    -0.4828050
H           1.4981449     0.2285053     1.2271862
H           7.0068050     1.5955766     0.1030056
H           5.1306809     2.0324913     1.6914361
H           4.3929557    -1.2077972    -1.9050767
H           6.6321836    -0.0751143    -1.7490027
28
370_C11H15NO_5-6-10-9 (45,) energy =    -558.1896315
C           0.7590601     0.7403041    -0.7707543
C          -0.5954349     1.3394739    -0.3557681
C          -1.6299456     0.2410825    -0.0651520
C          -1.1056497    -0.7554062     0.9806786
C           0.2512296    -1.3481757     0.5660960
C           1.2683180    -0.2439762     0.2864655
O           2.4785420    -0.8966736    -0.1681198
C           6.0664029     1.0563485     0.0218988
C           5.1077058     1.1343261     1.0280063
N           3.9195141     0.5157803     0.9760629
C           3.6387728    -0.1889172    -0.1187953
C           4.5279206    -0.3337033    -1.1960427
C           5.7612530     0.2990240    -1.1140873
H           0.6548483     0.2023684    -1.7234682
H           1.4993201     1.5345528    -0.9276814
H          -0.4593126     1.9568191     0.5442315
H          -0.9608736     2.0126600    -1.1411232
H          -2.5726019     0.6878525     0.2753225
H          -1.8563205    -0.2978363    -0.9969454
H          -0.9977605    -0.2416294     1.9471747
H          -1.8311295    -1.5629618     1.1380928
H           0.6420600    -2.0152246     1.3432288
H           0.1328753    -1.9518160    -0.3446210
H           1.4986789     0.2933889     1.2135291
H           7.0168521     1.5704159     0.1231184
H           5.3004665     1.7110901     1.9314634
H           4.2346659    -0.9280902    -2.0544346
H           6.4757206     0.2096791    -1.9283054
28
370_C11H15NO_5-6-10-9 (60,) energy =    -558.1872746
C           0.7649176     0.6542926    -0.8580402
C          -0.5853747     1.2925028    -0.4898447
C          -1.6235235     0.2257470    -0.1085921
C          -1.1009170    -0.6844817     1.0140293
C           0.2540508    -1.3131448     0.6487970
C           1.2747199    -0.2403402     0.2759040
O           2.4859976    -0.9279291    -0.1193728
C           6.0717581     1.0368601     0.0385162
C           5.2165844     0.9195773     1.1323168
N           4.0318411     0.2959393     1.0896101
C           3.6458159    -0.2119955    -0.0802719
C           4.4241318    -0.1497484    -1.2451514
C           5.6599625     0.4837975    -1.1770122
H           0.6534738     0.0373977    -1.7607787
H           1.5077222     1.4286225    -1.0875780
H          -0.4439747     1.9798836     0.3571052
H          -0.9500844     1.9018755    -1.3259999
H          -2.5635907     0.7027243     0.1962067
H          -1.8541574    -0.3861223    -0.9930703
H          -0.9911984    -0.0946724     1.9358970
H          -1.8287849    -1.4744073     1.2365303
H           0.6456612    -1.9134012     1.4779593
H           0.1334341    -1.9901457    -0.2085103
H           1.5047416     0.3702455     1.1586258
H           7.0271113     1.5425774     0.1368102
H           5.4985871     1.3328452     2.0996516
H           4.0505688    -0.5945424    -2.1609801
H           6.2911181     0.5500234    -2.0594462
28
370_C11H15NO_5-6-10-9 (75,) energy =    -558.1847551
C           0.7898375     0.5762213    -0.8999164
C          -0.5621300     1.2439935    -0.5946546
C          -1.6121114     0.2107829    -0.1579823
C          -1.1107697    -0.6239636     1.0309025
C           0.2457571    -1.2816098     0.7288876
C           1.2796206    -0.2432808     0.2982627
O           2.4930391    -0.9654070    -0.0187916
C           6.0722168     1.0221153     0.0453457
C           5.3403955     0.7182614     1.1922101
N           4.1590821     0.0870326     1.1762720
C           3.6535824    -0.2435820    -0.0116149
C           4.3033298     0.0110500    -1.2271591
C           5.5362455     0.6551179    -1.1909842
H           0.6868499    -0.1002906    -1.7599915
H           1.5382153     1.3309406    -1.1719713
H          -0.4286666     1.9860654     0.2062652
H          -0.9109731     1.7979765    -1.4749452
H          -2.5535737     0.7120597     0.0998816
H          -1.8335324    -0.4582111    -1.0025278
H          -1.0116108     0.0260587     1.9126398
H          -1.8458651    -1.3940402     1.2952565
H           0.6236443    -1.8258081     1.6016972
H           0.1345302    -2.0143668    -0.0826200
H           1.4954717     0.4265804     1.1429937
H           7.0308961     1.5257285     0.1205187
H           5.7237214     0.9816760     2.1769694
H           3.8416279    -0.3022638    -2.1571770
H           6.0709098     0.8675708    -2.1131267
28
370_C11H15NO_5-6-10-9 (90,) energy =    -558.1828497
C           0.2269039     0.1241129    -1.5342766
C          -1.1228623     0.6698763    -1.0398475
C          -1.6189615    -0.0870062     0.2020541
C          -0.5590070    -0.0850483     1.3142380
C           0.7854308    -0.6390339     0.8124547
C           1.2710936     0.1327941    -0.4185896
O           2.4775306    -0.4475965    -0.9710842
C           6.0811074     0.4835875     0.7459675
C           5.2762468    -0.5704992     1.1735833
N           4.0868209    -0.8716318     0.6333186
C           3.6580707    -0.1073719    -0.3704113
C           4.3868348     0.9771877    -0.8802325
C           5.6195674     1.2745913    -0.3086118
H           0.1089165    -0.9112307    -1.8823210
H           0.5979454     0.7060460    -2.3863211
H          -1.0159240     1.7368593    -0.7937211
H          -1.8639065     0.6117468    -1.8466419
H          -2.5552511     0.3548436     0.5659421
H          -1.8488184    -1.1260410    -0.0756723
H          -0.4186707     0.9437285     1.6788305
H          -0.9045589    -0.6721754     2.1740478
H           1.5453278    -0.6047992     1.5998483
H           0.6759989    -1.6941021     0.5277203
H           1.4908000     1.1749485    -0.1356244
H           7.0381339     0.6748027     1.2213558
H           5.5997548    -1.2136797     1.9905895
H           3.9844619     1.5486579    -1.7100510
H           6.2129494     2.1051059    -0.6821348
28
370_C11H15NO_5-6-10-9 (105,) energy =    -558.1825951
C           0.2183931     0.0050679    -1.5638797
C          -1.1271234     0.5882849    -1.1017114
C          -1.6009994    -0.0538437     0.2114948
C          -0.5266153     0.0569591     1.3042578
C           0.8144187    -0.5333409     0.8363741
C           1.2776781     0.1212380    -0.4692527
O           2.4756659    -0.5095337    -0.9754609
C           6.0742739     0.3985306     0.7627514
C           5.3794503    -0.7863308     0.9959906
N           4.1897821    -1.0758224     0.4494569
C           3.6566026    -0.1742172    -0.3729426
C           4.2717439     1.0483515    -0.6837671
C           5.5004459     1.3358900    -0.0996171
H           0.1013441    -1.0582647    -1.8134962
H           0.5743356     0.5076802    -2.4710499
H          -1.0232006     1.6738689    -0.9561485
H          -1.8792725     0.4527385    -1.8885866
H          -2.5352916     0.4141204     0.5465570
H          -1.8270960    -1.1153543     0.0339113
H          -0.3884047     1.1157220     1.5702654
H          -0.8564871    -0.4504201     2.2191526
H           1.5834211    -0.4158676     1.6082998
H           0.7116757    -1.6116043     0.6564321
H           1.4947653     1.1861747    -0.2860815
H           7.0340157     0.5780165     1.2371687
H           5.7925489    -1.5462365     1.6576910
H           3.7940626     1.7320392    -1.3781631
H           6.0079700     2.2711202    -0.3213056
28
370_C11H15NO_5-6-10-9 (120,) energy =    -558.1828235
C           0.2165555    -0.0901052    -1.5722800
C          -1.1321080     0.5206908    -1.1573071
C          -1.6011729    -0.0163085     0.2040739
C          -0.5275864     0.1896878     1.2838655
C           0.8171853    -0.4270056     0.8636489
C           1.2753444     0.1218972    -0.4916113
O           2.4718743    -0.5491795    -0.9398636
C           6.1017283     0.3598413     0.7332642
C           5.5088108    -0.8994266     0.7856560
N           4.3080975    -1.1839316     0.2620879
C           3.6592134    -0.2019434    -0.3602752
C           4.1681083     1.1014885    -0.4852869
C           5.4075559     1.3805733     0.0788281
H           0.1057790    -1.1708809    -1.7337001
H           0.5689901     0.3385348    -2.5179159
H          -1.0353010     1.6151653    -1.1002420
H          -1.8838623     0.3169829    -1.9296267
H          -2.5382261     0.4711846     0.5012755
H          -1.8204467    -1.0900952     0.1130986
H          -0.3964159     1.2673369     1.4633115
H          -0.8537037    -0.2444371     2.2369466
H           1.5859219    -0.2377669     1.6225269
H           0.7228976    -1.5172018     0.7732898
H           1.4808975     1.1993139    -0.3948902
H           7.0742444     0.5329653     1.1832259
H           6.0162430    -1.7275443     1.2784264
H           3.6105313     1.8579963    -1.0278169
H           5.8329849     2.3774613    -0.0029780
28
370_C11H15NO_5-6-10-9 (135,) energy =    -558.1833680
C           0.1993715    -0.2207249    -1.5832396
C          -1.1628903     0.3863978    -1.2106887
C          -1.5844927    -0.0035013     0.2146720
C          -0.4989020     0.3664023     1.2371833
C           0.8609193    -0.2450551     0.8602985
C           1.2706986     0.1567249    -0.5606984
O           2.4752391    -0.5218312    -0.9662193
C           6.1212425     0.2660760     0.7338208
C           5.6106639    -1.0097982     0.5045079
N           4.4048297    -1.2501740    -0.0250440
C           3.6605053    -0.2012145    -0.3733604
C           4.0791545     1.1291484    -0.1993287
C           5.3279745     1.3557682     0.3687626
H           0.1281363    -1.3161418    -1.6142446
H           0.5168938     0.1062773    -2.5802987
H          -1.1071267     1.4827266    -1.2844384
H          -1.9209974     0.0663195    -1.9357858
H          -2.5335205     0.4813747     0.4757873
H          -1.7637938    -1.0877356     0.2548562
H          -0.4064227     1.4616275     1.2875769
H          -0.7887197     0.0345631     2.2416671
H           1.6342247     0.0633776     1.5743783
H           0.8077330    -1.3411949     0.9005248
H           1.4266422     1.2454088    -0.5996451
H           7.1028387     0.3998631     1.1771734
H           6.1936074    -1.8918136     0.7664714
H           3.4536089     1.9566926    -0.5157774
H           5.6816474     2.3733219     0.5139637
28
370_C11H15NO_5-6-10-9 (150,) energy =    -558.1844668
C           0.1996574    -0.3277919    -1.5647509
C          -1.1654893     0.3043049    -1.2495646
C          -1.5856113     0.0432362     0.2052474
C          -0.5019616     0.5082691     1.1901384
C           0.8614356    -0.1273050     0.8697410
C           1.2692972     0.1492332    -0.5817428
O           2.4749840    -0.5526306    -0.9346721
C           6.1515792     0.2381076     0.6936090
C           5.7219147    -1.0111696     0.2498967
N           4.5069340    -1.2491209    -0.2559315
C           3.6634837    -0.2216338    -0.3609750
C           3.9897420     1.0822877     0.0526175
C           5.2547138     1.3022855     0.5878604
H           0.1344578    -1.4217228    -1.4945033
H           0.5162295    -0.0925154    -2.5874924
H          -1.1149987     1.3895894    -1.4228949
H          -1.9215973    -0.0842210    -1.9425015
H          -2.5365852     0.5457479     0.4220806
H          -1.7603915    -1.0336564     0.3433135
H          -0.4148298     1.6040669     1.1428026
H          -0.7900821     0.2658197     2.2202993
H           1.6306870     0.2445696     1.5568499
H           0.8110889    -1.2161571     1.0046252
H           1.4138305     1.2308255    -0.7244435
H           7.1469633     0.3701312     1.1053381
H           6.3831292    -1.8747636     0.3099355
H           3.2848780     1.8994466    -0.0488308
H           5.5367220     2.3000313     0.9143943
28
370_C11H15NO_5-6-10-9 (165,) energy =    -558.1854671
C           0.2217174    -0.4017624    -1.5225522
C          -1.1328534     0.2854221    -1.2875328
C          -1.6103816     0.1110036     0.1625614
C          -0.5462798     0.5912624     1.1612316
C           0.8065763    -0.0995401     0.9191890
C           1.2729748     0.0952580    -0.5287261
O           2.4673934    -0.6551620    -0.8053045
C           6.2026332     0.2761590     0.5970632
C           5.8277723    -0.9510776     0.0522806
N           4.5957190    -1.2296891    -0.3834565
C           3.6694947    -0.2721155    -0.3022544
C           3.9324808     1.0018511     0.2335803
C           5.2225963     1.2649438     0.6841295
H           0.1202629    -1.4882022    -1.3987552
H           0.5792709    -0.2297310    -2.5442703
H          -1.0425854     1.3585106    -1.5127609
H          -1.8767103    -0.1153072    -1.9867216
H          -2.5511499     0.6530600     0.3205855
H          -1.8249419    -0.9516035     0.3472592
H          -0.4231766     1.6803833     1.0644934
H          -0.8760427     0.4083644     2.1911954
H           1.5617400     0.2767686     1.6188814
H           0.7148805    -1.1790539     1.0998715
H           1.4564376     1.1627260    -0.7226871
H           7.2179429     0.4464159     0.9401217
H           6.5524970    -1.7595026    -0.0373928
H           3.1647702     1.7636498     0.2957146
H           5.4565574     2.2412454     1.1009070
28
370_C11H15NO_5-6-10-9 (180,) energy =    -558.1857935
C           0.2595991    -0.4595348    -1.4718001
C          -1.0793899     0.2818700    -1.3300310
C          -1.6374200     0.1733155     0.0975824
C          -0.6089277     0.6488281     1.1351303
C           0.7280500    -0.0969661     0.9856880
C           1.2768965     0.0338713    -0.4407354
O           2.4560024    -0.7668967    -0.6231241
C           6.2464975     0.3341106     0.4712303
C           5.8946998    -0.8736919    -0.1304500
N           4.6466298    -1.2054432    -0.4705422
C           3.6739402    -0.3268047    -0.2179458
C           3.9097872     0.9192222     0.3919203
C           5.2203991     1.2414063     0.7331495
H           0.1120237    -1.5370026    -1.3189767
H           0.6746696    -0.3348739    -2.4784553
H          -0.9382106     1.3429739    -1.5840258
H          -1.8004341    -0.1156611    -2.0545217
H          -2.5641272     0.7536692     0.1882875
H          -1.9008625    -0.8740869     0.3045388
H          -0.4410829     1.7291529     1.0106563
H          -0.9974553     0.5120946     2.1516786
H           1.4593991     0.2714262     1.7144328
H           0.5862434    -1.1662918     1.1926635
H           1.5142544     1.0856051    -0.6581158
H           7.2790782     0.5502599     0.7253132
H           6.6560689    -1.6199711    -0.3544736
H           3.1062678     1.6148917     0.5996423
H           5.4325527     2.1976774     1.2045549
