19
393_C7H10N2_2-0-7-15 (-165,) energy =    -382.2728223
C           1.0600957    -0.1475062     0.4018145
H           0.8483637     0.7156587     1.0486693
C          -0.2226788    -0.5863220    -0.2999635
H          -0.9946621    -0.8356532     0.4346162
H          -0.0477544    -1.4739727    -0.9194858
H          -0.6094641     0.2115862    -0.9436813
H           1.4164848    -0.9561731     1.0610370
N           2.0778772     0.2114803    -0.5729003
H           1.9381722    -0.1129470    -1.5218858
C           6.1041220     0.6862541     0.1996735
H           7.1739356     0.8097705     0.3320298
C           5.2190342     0.7331106     1.2798614
H           5.5879067     0.8987277     2.2891815
C           3.8570275     0.5683536     1.0638916
H           3.1536040     0.6115877     1.8882617
C           3.4110563     0.3555938    -0.2589364
N           4.2570668     0.3036905    -1.3064283
C           5.5600280     0.4697732    -1.0655523
H           6.2072347     0.4214997    -1.9409112
19
393_C7H10N2_2-0-7-15 (-150,) energy =    -382.2721076
C           1.0139325    -0.0192318     0.4011028
H           0.6499594     0.8605867     0.9525014
C          -0.1519618    -0.6987165    -0.3148160
H          -0.9442573    -0.9509153     0.3971442
H           0.1743522    -1.6227909    -0.8051306
H          -0.5840365    -0.0387116    -1.0764030
H           1.4321471    -0.7097683     1.1482309
N           2.0478403     0.3667210    -0.5474310
H           1.8838852     0.1476156    -1.5220220
C           6.1007379     0.6044169     0.1946391
H           7.1769800     0.6647914     0.3183437
C           5.2302781     0.6473676     1.2870205
H           5.6182358     0.7488335     2.2976771
C           3.8592336     0.5681443     1.0813381
H           3.1676437     0.6244396     1.9149682
C           3.3883245     0.4359032    -0.2438091
N           4.2196399     0.3965513    -1.3038823
C           5.5320261     0.4837289    -1.0723493
H           6.1660274     0.4495537    -1.9579890
19
393_C7H10N2_2-0-7-15 (-135,) energy =    -382.2713400
C           0.9572934     0.1089433     0.3978338
H           0.4511238     0.9985604     0.8028106
C          -0.0636485    -0.7989151    -0.2898615
H          -0.8797409    -1.0483873     0.3966451
H           0.4046247    -1.7305529    -0.6250135
H          -0.5058305    -0.3038615    -1.1632586
H           1.3920569    -0.4233826     1.2521927
N           2.0242798     0.4892030    -0.5140517
H           1.8426366     0.3918471    -1.5051082
C           6.0954261     0.5082477     0.1707231
H           7.1751356     0.5118065     0.2773499
C           5.2453518     0.5364293     1.2797487
H           5.6534737     0.5704488     2.2870035
C           3.8690944     0.5350275     1.0970270
H           3.1980650     0.5922158     1.9471137
C           3.3686334     0.4878581    -0.2236833
N           4.1813674     0.4698363    -1.2993909
C           5.5001086     0.4850322    -1.0891642
H           6.1162449     0.4726464    -1.9879201
19
393_C7H10N2_2-0-7-15 (-120,) energy =    -382.2709387
C           0.9021877     0.3367119     0.1367570
H           0.2987301     1.2222005    -0.1096847
C           0.0299269    -0.9192902     0.0435321
H          -0.8421710    -0.8350103     0.7030614
H           0.5987655    -1.8103579     0.3292720
H          -0.3320510    -1.0668738    -0.9801642
H           1.2460661     0.4830517     1.1647085
N           2.0597526     0.2906012    -0.7436006
H           1.9281563     0.6150684    -1.6933811
C           6.0768720     0.5020065     0.2008285
H           7.1448595     0.5765371     0.3767039
C           5.1890679     0.1126297     1.2081980
H           5.5562490    -0.1344107     2.2013685
C           3.8303310     0.0267708     0.9392127
H           3.1378909    -0.3056008     1.7050035
C           3.3812050     0.3560946    -0.3595783
N           4.2315233     0.7263336    -1.3377438
C           5.5349269     0.7858789    -1.0504990
H           6.1813234     1.0856819    -1.8749707
19
393_C7H10N2_2-0-7-15 (-105,) energy =    -382.2715019
C           0.8746291     0.4075909     0.0869865
H           0.1667401     1.1703826    -0.2612777
C           0.1694643    -0.9524552     0.1460751
H          -0.6986166    -0.9100627     0.8150188
H           0.8488567    -1.7303379     0.5110473
H          -0.1776868    -1.2518361    -0.8487001
H           1.1875092     0.7189060     1.0905185
N           2.0277275     0.4241815    -0.7997806
H           1.9055362     0.8149001    -1.7244756
C           6.0314708     0.4431916     0.2102062
H           7.0980192     0.4722686     0.4070324
C           5.1141775     0.0276367     1.1797486
H           5.4552795    -0.2857040     2.1634710
C           3.7583111     0.0018978     0.8837258
H           3.0392901    -0.3468822     1.6170970
C           3.3451399     0.4176143    -0.4021970
N           4.2231977     0.8136168    -1.3449076
C           5.5218900     0.8149771    -1.0321375
H           6.1930399     1.1397370    -1.8268495
19
393_C7H10N2_2-0-7-15 (-90,) energy =    -382.2720132
C           0.8213391     0.4535568     0.0954488
H           0.0360037     1.1228073    -0.2751999
C           0.2909374    -0.9860810     0.1382241
H          -0.5872996    -1.0556383     0.7914078
H           1.0547118    -1.6748906     0.5147944
H           0.0016547    -1.3216979    -0.8635238
H           1.0618926     0.7999309     1.1082899
N           1.9827985     0.6301975    -0.7538842
H           1.8574433     0.9479647    -1.7045454
C           5.9867942     0.3566810     0.2021059
H           7.0551202     0.3113776     0.3855870
C           5.0545255     0.0165681     1.1865879
H           5.3849735    -0.3082541     2.1702658
C           3.6964500     0.0844571     0.9080887
H           2.9645004    -0.1946814     1.6580533
C           3.2972569     0.5129018    -0.3788205
N           4.1897328     0.8361838    -1.3368394
C           5.4885392     0.7526605    -1.0375911
H           6.1710124     1.0224174    -1.8432544
19
393_C7H10N2_2-0-7-15 (-75,) energy =    -382.2725233
C           0.9224078    -0.5511402    -0.1478543
H           0.2533614    -1.2648221    -0.6420650
C           0.6117621    -0.5017609     1.3549170
H          -0.4285321    -0.1997652     1.5256454
H           1.2645873     0.2123868     1.8680355
H           0.7610044    -1.4850228     1.8150880
H           0.7181239     0.4212277    -0.6105687
N           2.2818625    -0.9439323    -0.4736792
H           2.5071374    -1.9298448    -0.4337359
C           5.7371192     1.3009321    -0.1834886
H           6.6837400     1.8279648    -0.1263266
C           4.5136373     1.9718070    -0.1037196
H           4.4839304     3.0517470     0.0191106
C           3.3255703     1.2573452    -0.1775190
H           2.3706330     1.7672467    -0.1132578
C           3.3954775    -0.1445249    -0.3395600
N           4.5713165    -0.8005490    -0.4059467
C           5.6958917    -0.0840164    -0.3319611
H           6.6201853    -0.6581414    -0.3919963
19
393_C7H10N2_2-0-7-15 (-60,) energy =    -382.2722197
C           0.9312643    -0.5793333    -0.1776699
H           0.2548331    -1.3569519    -0.5474525
C           0.7697411    -0.4153036     1.3400854
H          -0.2608820    -0.1344045     1.5872972
H           1.4370542     0.3603215     1.7286302
H           1.0022430    -1.3509886     1.8613054
H           0.6307284     0.3461728    -0.6854090
N           2.2705857    -0.9423501    -0.6256276
H           2.4981341    -1.9288695    -0.5763783
C           5.7401921     1.2352694    -0.0677817
H           6.6890872     1.7455991     0.0602987
C           4.5253000     1.9265112    -0.0594651
H           4.5048812     3.0054368     0.0732744
C           3.3348254     1.2316255    -0.2243592
H           2.3845501     1.7546503    -0.2323233
C           3.3934796    -0.1688559    -0.3956705
N           4.5591421    -0.8430852    -0.3991084
C           5.6884510    -0.1458358    -0.2442642
H           6.6060208    -0.7333539    -0.2573586
19
393_C7H10N2_2-0-7-15 (-45,) energy =    -382.2703723
C           0.9101727    -0.6268403    -0.1795616
H           0.2859329    -1.4911281    -0.4260810
C           0.8646458    -0.3500002     1.3290728
H          -0.1679227    -0.1575572     1.6430039
H           1.4686791     0.5204741     1.5987737
H           1.2398151    -1.2079371     1.8989828
H           0.4676141     0.2254896    -0.7141476
N           2.2340041    -0.9013810    -0.7453615
H           2.4791888    -1.8858989    -0.7570482
C           5.7113978     1.2055668     0.0173280
H           6.6607536     1.6985626     0.1990724
C           4.5064173     1.9146102    -0.0042170
H           4.4956288     2.9901260     0.1544111
C           3.3163993     1.2406235    -0.2407532
H           2.3730742     1.7746215    -0.2901879
C           3.3634167    -0.1558903    -0.4421662
N           4.5186410    -0.8450277    -0.4251713
C           5.6508748    -0.1676439    -0.2077331
H           6.5613395    -0.7660627    -0.2080737
19
393_C7H10N2_2-0-7-15 (-30,) energy =    -382.2673038
C           0.8910006    -0.6928782    -0.1691600
H           0.3756803    -1.6511188    -0.2854247
C           0.8960788    -0.2776997     1.3068018
H          -0.1358724    -0.2217640     1.6720469
H           1.3598227     0.6993225     1.4602110
H           1.4369394    -1.0051641     1.9230173
H           0.2964002     0.0387955    -0.7357715
N           2.2022565    -0.8519423    -0.8196075
H           2.4677242    -1.8252417    -0.9295399
C           5.7017598     1.1689363     0.0777578
H           6.6554772     1.6390620     0.2941943
C           4.5093218     1.8991749     0.0599713
H           4.5138284     2.9690732     0.2530770
C           3.3141386     1.2542568    -0.2258807
H           2.3826065     1.8068189    -0.2909559
C           3.3399949    -0.1359419    -0.4692466
N           4.4845163    -0.8426089    -0.4642017
C           5.6244329    -0.1924043    -0.2055135
H           6.5258780    -0.8040960    -0.2198969
19
393_C7H10N2_2-0-7-15 (-15,) energy =    -382.2641891
C           0.8862522    -0.7552423    -0.1471880
H           0.5150560    -1.7851009    -0.1176150
C           0.8821408    -0.1803975     1.2721573
H          -0.1264968    -0.2776298     1.6896631
H           1.1514335     0.8773299     1.3003572
H           1.5751906    -0.7211645     1.9262867
H           0.1618258    -0.1900758    -0.7522005
N           2.1811352    -0.7995707    -0.8549497
H           2.4557854    -1.7492602    -1.0827339
C           5.7198970     1.1279276     0.1047231
H           6.6827370     1.5720428     0.3353391
C           4.5390252     1.8761892     0.1322773
H           4.5627890     2.9360156     0.3735797
C           3.3317298     1.2658218    -0.1776879
H           2.4126556     1.8394758    -0.2228881
C           3.3305360    -0.1125335    -0.4822404
N           4.4662693    -0.8335131    -0.5276056
C           5.6192276    -0.2146813    -0.2508959
H           6.5112807    -0.8373241    -0.3109925
19
393_C7H10N2_2-0-7-15 (0,) energy =    -382.2620662
C           1.0561078    -1.0922225     0.0920361
H           0.7005427    -1.7199441     0.9220669
C           0.5715281     0.3397328     0.3237445
H          -0.5238018     0.3424112     0.2951485
H           0.9331317     1.0219780    -0.4524237
H           0.8726342     0.7387087     1.2951518
H           0.5650776    -1.4757980    -0.8113248
N           2.5058711    -1.3018680    -0.0833846
H           2.7034696    -1.9399557    -0.8464654
C           5.6542873     1.3923214    -0.1303467
H           6.5097049     2.0563301    -0.1996825
C           4.7095087     1.5125534     0.8930912
H           4.8213425     2.2740098     1.6610965
C           3.6366208     0.6338170     0.9476261
H           2.9327235     0.6719329     1.7698392
C           3.5094820    -0.3425336    -0.0644605
N           4.4279569    -0.4736745    -1.0419924
C           5.4680873     0.3661498    -1.0529358
H           6.1878551     0.2092803    -1.8557770
19
393_C7H10N2_2-0-7-15 (15,) energy =    -382.2641904
C           1.0582934    -1.0893125     0.1822645
H           0.7918593    -1.5373459     1.1510021
C           0.5826011     0.3663222     0.1761601
H          -0.5047020     0.3835118     0.3125485
H           0.8146256     0.8602800    -0.7739525
H           1.0260675     0.9589704     0.9788890
H           0.4996111    -1.6518873    -0.5731782
N           2.4888622    -1.3340932    -0.0890954
H           2.6247067    -1.8894342    -0.9271526
C           5.6170463     1.3814060    -0.0911639
H           6.4639946     2.0572287    -0.1498764
C           4.7214603     1.4158633     0.9821315
H           4.8648123     2.1191004     1.7987912
C           3.6571269     0.5259112     1.0167263
H           2.9861868     0.4934042     1.8679837
C           3.4923969    -0.3726937    -0.0594378
N           4.3611048    -0.4220560    -1.0862358
C           5.3933806     0.4284610    -1.0815931
H           6.0742292     0.3429941    -1.9278497
19
393_C7H10N2_2-0-7-15 (30,) energy =    -382.2673038
C           1.0781230    -1.0735365     0.2372599
H           0.9411052    -1.3697241     1.2877099
C           0.5622973     0.3599528     0.0643524
H          -0.4904369     0.4061468     0.3661359
H           0.6321589     0.6848050    -0.9801791
H           1.1179414     1.0759999     0.6740247
H           0.4654680    -1.7639396    -0.3503580
N           2.4738958    -1.3297655    -0.1550867
H           2.5469596    -1.8053839    -1.0485738
C           5.6339373     1.3419625    -0.0468822
H           6.4895584     2.0086548    -0.0764283
C           4.7407417     1.3393153     1.0290679
H           4.8930983     2.0049002     1.8751035
C           3.6626281     0.4653948     1.0235526
H           2.9821469     0.4120001     1.8670015
C           3.4896599    -0.3843114    -0.0902792
N           4.3506992    -0.3945633    -1.1236451
C           5.3921946     0.4437444    -1.0833358
H           6.0661865     0.3944023    -1.9378993
19
393_C7H10N2_2-0-7-15 (45,) energy =    -382.2703723
C           1.1134617    -1.0459280     0.2904051
H           1.1236186    -1.2164388     1.3761933
C           0.5098608     0.3359451     0.0061865
H          -0.4931708     0.4030528     0.4434588
H           0.4242798     0.5147947    -1.0719122
H           1.1190902     1.1383158     0.4308720
H           0.4780967    -1.8315949    -0.1296819
N           2.4608541    -1.2819340    -0.2357694
H           2.4730661    -1.6860865    -1.1663843
C           5.6752110     1.3111700     0.0024672
H           6.5461455     1.9583218     0.0065488
C           4.7679320     1.2919646     1.0662687
H           4.9221768     1.9270619     1.9351031
C           3.6678488     0.4471788     1.0163393
H           2.9664953     0.3949070     1.8426752
C           3.4949816    -0.3644763    -0.1257480
N           4.3643195    -0.3535241    -1.1523341
C           5.4218376     0.4608291    -1.0711896
H           6.1008592     0.4319743    -1.9227486
19
393_C7H10N2_2-0-7-15 (60,) energy =    -382.2722198
C           1.1414796    -1.0159446     0.3230500
H           1.2817436    -1.0889974     1.4091720
C           0.4079196     0.2882970    -0.0195025
H          -0.5472495     0.3426749     0.5160896
H           0.2000170     0.3492575    -1.0938937
H           1.0044303     1.1631994     0.2572678
H           0.5292605    -1.8790047     0.0414966
N           2.4352875    -1.1914069    -0.3264529
H           2.4052219    -1.5496655    -1.2741925
C           5.7416463     1.2621223     0.0474613
H           6.6376943     1.8727749     0.0854964
C           4.8101034     1.2558802     1.0897124
H           4.9675148     1.8677022     1.9745926
C           3.6760093     0.4607581     0.9967220
H           2.9496201     0.4353367     1.8019323
C           3.4997210    -0.3237189    -0.1642878
N           4.3891688    -0.3191122    -1.1751692
C           5.4739773     0.4517440    -1.0537301
H           6.1663263     0.4198538    -1.8944989
19
393_C7H10N2_2-0-7-15 (75,) energy =    -382.2725235
C           1.1604805    -0.9749347     0.3371199
H           1.3947893    -0.9705629     1.4078369
C           0.2701433     0.2242457    -0.0181957
H          -0.6494304     0.2144970     0.5791825
H          -0.0111946     0.1991784    -1.0770059
H           0.7906034     1.1694941     0.1692117
H           0.6168350    -1.9086669     0.1532227
N           2.4036073    -1.0497460    -0.4097624
H           2.3607199    -1.4090904    -1.3549657
C           5.8299980     1.2034395     0.0856329
H           6.7578157     1.7616664     0.1537260
C           4.8738176     1.2360375     1.1045032
H           5.0416670     1.8295503     1.9999472
C           3.6980266     0.5094842     0.9744459
H           2.9481251     0.5299352     1.7575385
C           3.5083323    -0.2544889    -0.1989594
N           4.4204859    -0.2825412    -1.1911268
C           5.5410524     0.4271378    -1.0348885
H           6.2481177     0.3713817    -1.8622081
19
393_C7H10N2_2-0-7-15 (90,) energy =    -382.2720132
C           1.1371487    -0.9491452     0.3196335
H           1.4511869    -0.9687534     1.3706632
C           0.0969702     0.1571727     0.0964519
H          -0.7666735     0.0152324     0.7573355
H          -0.2583859     0.1507231    -0.9396475
H           0.5249763     1.1450587     0.2977313
H           0.6813201    -1.9263343     0.1212199
N           2.3109738    -0.8352322    -0.5234037
H           2.3537923    -1.3584485    -1.3864614
C           5.8675457     1.1270818     0.1983840
H           6.8299084     1.6113323     0.3264307
C           4.8378161     1.2746849     1.1321474
H           4.9803822     1.8893466     2.0176942
C           3.6202053     0.6407378     0.9271368
H           2.8080231     0.7631665     1.6352928
C           3.4656184    -0.1539302    -0.2320372
N           4.4510855    -0.2961190    -1.1416803
C           5.6072041     0.3335039    -0.9171163
H           6.3722474     0.1899230    -1.6798269
19
393_C7H10N2_2-0-7-15 (105,) energy =    -382.2715015
C           1.1631981    -0.8840484     0.2984064
H           1.5307819    -0.8501695     1.3307070
C          -0.0147899     0.0808284     0.1197479
H          -0.8229933    -0.1602291     0.8208724
H          -0.4137087     0.0197680    -0.8985128
H           0.2968372     1.1162103     0.2950463
H           0.8201350    -1.9129423     0.1312342
N           2.2680173    -0.6240766    -0.6115722
H           2.3468482    -1.2042675    -1.4361667
C           5.9222811     1.1038761     0.2314180
H           6.9078996     1.5287497     0.3899764
C           4.8763246     1.3117500     1.1352071
H           5.0285567     1.9171449     2.0254725
C           3.6295129     0.7526872     0.8910997
H           2.8018175     0.9310264     1.5690382
C           3.4629971    -0.0315108    -0.2726456
N           4.4642036    -0.2319301    -1.1523806
C           5.6482325     0.3301423    -0.8944775
H           6.4251939     0.1426801    -1.6352015
19
393_C7H10N2_2-0-7-15 (120,) energy =    -382.2709386
C           1.1658151    -0.8047252     0.3332810
H           1.4985530    -0.6017290     1.3551832
C          -0.1145810    -0.0210937     0.0274739
H          -0.9139173    -0.2975719     0.7255104
H          -0.4650981    -0.2299966    -0.9894930
H           0.0603593     1.0570627     0.1065436
H           0.9551427    -1.8831576     0.2920437
N           2.2524906    -0.4972789    -0.5842119
H           2.2916262    -1.0288982    -1.4447123
C           6.0062490     1.0297139     0.2222989
H           7.0140833     1.4043722     0.3671632
C           4.9980105     1.2430781     1.1670390
H           5.2025892     1.8030503     2.0763502
C           3.7210887     0.7492960     0.9402691
H           2.9250099     0.9382446     1.6522474
C           3.4831269     0.0229295    -0.2484180
N           4.4482867    -0.1814431    -1.1669277
C           5.6633444     0.3185871    -0.9252647
H           6.4073927     0.1306326    -1.6988947
19
393_C7H10N2_2-0-7-15 (135,) energy =    -382.2713401
C           1.0938124    -0.4885618     0.5086015
H           1.2809276     0.3344343     1.2084700
C          -0.1791725    -0.1899959    -0.2851006
H          -1.0420448    -0.1182002     0.3856057
H          -0.3883207    -0.9872476    -1.0090108
H          -0.0861180     0.7539271    -0.8327364
H           0.9494805    -1.3949797     1.1162839
N           2.2431149    -0.6305376    -0.3706570
H           2.0577519    -0.8269984    -1.3461139
C           6.0123372     1.0003017     0.0486718
H           7.0129912     1.4179320     0.0863759
C           5.2116904     0.9012532     1.1899396
H           5.5823645     1.2386720     2.1548447
C           3.9383629     0.3558483     1.0969778
H           3.3200138     0.2408830     1.9804941
C           3.4835136    -0.0714729    -0.1709025
N           4.2527041     0.0118325    -1.2752747
C           5.4772253     0.5295781    -1.1489812
H           6.0624262     0.5736411    -2.0672198
19
393_C7H10N2_2-0-7-15 (150,) energy =    -382.2721075
C           1.0943005    -0.3540758     0.4664344
H           1.2095233     0.5863174     1.0252476
C          -0.2201277    -0.3192821    -0.3111481
H          -1.0683843    -0.2244525     0.3741909
H          -0.3588687    -1.2401762    -0.8899497
H          -0.2432953     0.5294895    -1.0038634
H           1.0643438    -1.1630611     1.2116193
N           2.2225675    -0.5337945    -0.4347337
H           2.0158123    -0.6094447    -1.4227658
C           6.0582584     0.8881134     0.1112672
H           7.0777761     1.2521601     0.1839996
C           5.2356736     0.7718792     1.2349810
H           5.6070769     1.0427396     2.2203325
C           3.9372742     0.2996605     1.0951506
H           3.2923970     0.1795096     1.9589249
C           3.4861014    -0.0423566    -0.1989628
N           4.2728333     0.0634138    -1.2881584
C           5.5189377     0.5127613    -1.1181424
H           6.1193364     0.5802323    -2.0250464
19
393_C7H10N2_2-0-7-15 (165,) energy =    -382.2728231
C           1.0843974    -0.2211940     0.4261837
H           1.1016745     0.7865689     0.8731639
C          -0.2490252    -0.4440715    -0.2830144
H          -1.0792380    -0.3475132     0.4234818
H          -0.2938037    -1.4449445    -0.7268022
H          -0.3976686     0.2932173    -1.0808631
H           1.1838188    -0.9352926     1.2558434
N           2.1907443    -0.3942203    -0.5017845
H           1.9700770    -0.3591845    -1.4894762
C           6.0880497     0.8051216     0.1353136
H           7.1247195     1.1101398     0.2330528
C           5.2503874     0.6800965     1.2467182
H           5.6247405     0.8861493     2.2465332
C           3.9292513     0.2882822     1.0743868
H           3.2667877     0.1761063     1.9257627
C           3.4747360     0.0278017    -0.2370259
N           4.2732145     0.1506429    -1.3153948
C           5.5393251     0.5253832    -1.1153660
H           6.1491701     0.6107658    -2.0143925
19
393_C7H10N2_2-0-7-15 (180,) energy =    -382.2730029
C           1.0597737    -0.1065195     0.4000724
H           0.9520821     0.9245001     0.7787439
C          -0.2463869    -0.5638731    -0.2448853
H          -1.0719657    -0.4916957     0.4700938
H          -0.1707680    -1.6029523    -0.5824376
H          -0.4991959     0.0605828    -1.1105511
H           1.2734893    -0.7406048     1.2706182
N           2.1575913    -0.2162876    -0.5432788
H           1.9363909    -0.1229948    -1.5268190
C           6.1159225     0.7238815     0.1509838
H           7.1691223     0.9598935     0.2619787
C           5.2672835     0.6070905     1.2547512
H           5.6490976     0.7528961     2.2623285
C           3.9245552     0.3067378     1.0657947
H           3.2524302     0.2162568     1.9118994
C           3.4603280     0.1217275    -0.2551294
N           4.2687845     0.2437249    -1.3268204
C           5.5541511     0.5332338    -1.1106419
H           6.1701817     0.6214451    -2.0052050
