26
226_C10H13NO2_19-13-14-15 (-165,) energy =    -594.0805953
N           1.3363285    -0.3741072    -0.8481051
C           1.2034728     1.0377132    -1.1717619
H           0.4884100     1.5288844    -0.4981023
H           0.8333859     1.1551358    -2.2000897
H           2.1650089     1.5415639    -1.0874380
C           2.5153934    -1.0087579    -0.5283481
C           5.8568184     1.2044330     1.0612825
H           6.7043029     1.7175667     1.5078593
C           4.5855400     1.3040493     1.6359077
H           4.4280002     1.8848517     2.5397438
C           3.5252863     0.6336925     1.0402786
H           2.5376863     0.6800760     1.4921714
C           3.6851204    -0.1471093    -0.1216328
C           4.9711570    -0.2276849    -0.6980813
O           5.3334299    -0.8916509    -1.8295103
C           4.3790277    -1.3825433    -2.7652572
H           4.9455835    -1.5796690    -3.6782616
H           3.6094984    -0.6286635    -2.9778832
H           3.9011413    -2.2970935    -2.4086090
C           6.0406143     0.4555414    -0.0914914
H           7.0142646     0.3775954    -0.5648849
O           2.6029967    -2.2353407    -0.4887611
C           0.1492256    -1.1844925    -1.0816151
H          -0.7048179    -0.7581094    -0.5411680
H           0.3436997    -2.1970992    -0.7312506
H          -0.1017680    -1.2175735    -2.1512369
26
226_C10H13NO2_19-13-14-15 (-150,) energy =    -594.0804146
N           1.3339563    -0.3991281    -0.8254182
C           1.1892349     1.0095718    -1.1584466
H           0.4815166     1.5041304    -0.4794865
H           0.8035571     1.1154058    -2.1823497
H           2.1489782     1.5197094    -1.0939978
C           2.5222308    -1.0277826    -0.5242281
C           5.8673559     1.1972666     1.0391953
H           6.7162729     1.7191612     1.4727144
C           4.5899874     1.3495304     1.5865796
H           4.4305002     1.9777762     2.4578604
C           3.5229929     0.6737277     1.0067462
H           2.5303598     0.7637922     1.4402555
C           3.6873425    -0.1653173    -0.1115381
C           4.9823056    -0.3076008    -0.6548341
O           5.3309949    -1.0648940    -1.7318731
C           4.4108074    -1.3135439    -2.7916970
H           5.0238475    -1.5266289    -3.6709536
H           3.7923880    -0.4286758    -2.9916787
H           3.7676238    -2.1672191    -2.5671364
C           6.0551018     0.3876438    -0.0731125
H           7.0342409     0.2673130    -0.5258287
O           2.6235447    -2.2537008    -0.5139498
C           0.1556432    -1.2204144    -1.0654960
H          -0.7047171    -0.8012567    -0.5295362
H           0.3567775    -2.2314528    -0.7145130
H          -0.0897206    -1.2562447    -2.1364912
26
226_C10H13NO2_19-13-14-15 (-135,) energy =    -594.0794601
N           1.2949824    -0.4143252    -0.7799662
C           1.1607825     0.9880801    -1.1425936
H           0.4339886     1.4935419    -0.4925921
H           0.8041031     1.0767023    -2.1788314
H           2.1179562     1.5002242    -1.0603578
C           2.4793650    -1.0482771    -0.4706544
C           5.8537600     1.2034363     0.9984223
H           6.7106657     1.7403933     1.3964170
C           4.5848322     1.3855719     1.5538755
H           4.4417280     2.0523148     2.3991239
C           3.5027704     0.6952735     1.0166389
H           2.5159099     0.8169744     1.4555395
C           3.6503857    -0.1894908    -0.0658343
C           4.9393360    -0.3740122    -0.6084740
O           5.2456857    -1.2126551    -1.6413335
C           4.4136782    -1.2407599    -2.7996273
H           5.0497614    -1.5876166    -3.6179432
H           4.0370145    -0.2376141    -3.0381262
H           3.5767753    -1.9325513    -2.6711865
C           6.0225448     0.3423209    -0.0803181
H           6.9956451     0.1921218    -0.5371035
O           2.5745871    -2.2736804    -0.4554625
C           0.1161324    -1.2338422    -1.0236223
H          -0.7499502    -0.7985589    -0.5103905
H           0.3051175    -2.2389870    -0.6497098
H          -0.1121696    -1.2902787    -2.0976584
26
226_C10H13NO2_19-13-14-15 (-120,) energy =    -594.0783407
N           1.2838766    -0.4576855    -0.7597091
C           1.1662732     0.9338624    -1.1661012
H           0.4256035     1.4606321    -0.5494861
H           0.8374487     0.9959625    -2.2134700
H           2.1236493     1.4440542    -1.0728712
C           2.4593010    -1.0890475    -0.4075793
C           5.8508155     1.2010158     0.9623307
H           6.7134308     1.7464928     1.3354444
C           4.5946469     1.3882956     1.5411567
H           4.4681252     2.0710459     2.3763796
C           3.5001929     0.6835888     1.0438681
H           2.5225649     0.8124148     1.5013062
C           3.6309681    -0.2188349    -0.0227077
C           4.9069462    -0.4066706    -0.5906859
O           5.1622481    -1.2953831    -1.6034012
C           4.4822026    -1.0972163    -2.8388170
H           4.9313784    -1.8000994    -3.5438100
H           4.6249358    -0.0721153    -3.2068948
H           3.4113696    -1.3157054    -2.7616533
C           6.0003720     0.3172277    -0.1042279
H           6.9656340     0.1556458    -0.5739245
O           2.5475881    -2.3110964    -0.3410735
C           0.1065805    -1.2789185    -1.0045358
H          -0.7681914    -0.8255060    -0.5226811
H           0.2834014    -2.2733069    -0.5971479
H          -0.0992975    -1.3663837    -2.0810530
26
226_C10H13NO2_19-13-14-15 (-105,) energy =    -594.0778851
N           1.2796749    -0.4887167    -0.7904166
C           1.1966315     0.8893425    -1.2448185
H           0.4266620     1.4386326    -0.6858549
H           0.9271503     0.9237512    -2.3100844
H           2.1510910     1.3962848    -1.1110533
C           2.4148935    -1.1052170    -0.3064066
C           5.8540299     1.2139799     0.8902774
H           6.7310703     1.7649602     1.2188825
C           4.6250101     1.4047828     1.5228417
H           4.5355897     2.1002142     2.3525112
C           3.5084103     0.6893513     1.0904589
H           2.5525632     0.8250615     1.5904125
C           3.5969137    -0.2258651     0.0326470
C           4.8434027    -0.4141403    -0.5916050
O           5.0131497    -1.3301776    -1.6044203
C           4.5111448    -0.9404858    -2.8786980
H           4.7530883    -1.7546800    -3.5651779
H           4.9885969    -0.0139268    -3.2270363
H           3.4224406    -0.7994568    -2.8635873
C           5.9585544     0.3130214    -0.1692284
H           6.9041671     0.1428927    -0.6749829
O           2.4668209    -2.3117681    -0.0976700
C           0.0923382    -1.2985198    -1.0225453
H          -0.7787412    -0.8355261    -0.5416908
H           0.2632805    -2.2900785    -0.6056638
H          -0.1160393    -1.3900536    -2.0976598
26
226_C10H13NO2_19-13-14-15 (-90,) energy =    -594.0777782
N           1.2310194    -0.5060282    -0.8016443
C           1.1825073     0.8586530    -1.2966113
H           0.3940174     1.4305494    -0.7874327
H           0.9609306     0.8671066    -2.3730707
H           2.1352829     1.3601729    -1.1323503
C           2.3099036    -1.0932280    -0.1784598
C           5.8322534     1.1965127     0.8148991
H           6.7326165     1.7382661     1.0915906
C           4.6467312     1.3944701     1.5247142
H           4.6164839     2.0889046     2.3595189
C           3.4993083     0.6862117     1.1673167
H           2.5787250     0.8265609     1.7284816
C           3.5156726    -0.2225127     0.1011859
C           4.7151210    -0.4152323    -0.6032182
O           4.7826489    -1.3392637    -1.6238151
C           4.5070872    -0.8247194    -2.9228969
H           4.6378816    -1.6568943    -3.6181714
H           5.1996906    -0.0142492    -3.1896719
H           3.4765662    -0.4515959    -2.9980716
C           5.8645023     0.2950358    -0.2487897
H           6.7790772     0.1138146    -0.8059349
O           2.3062269    -2.2644907     0.1810083
C           0.0311446    -1.3002221    -1.0208553
H          -0.8313693    -0.8381559    -0.5222589
H           0.1999418    -2.2963659    -0.6139806
H          -0.1907180    -1.3746031    -2.0938154
26
226_C10H13NO2_19-13-14-15 (-75,) energy =    -594.0781853
N           1.2088817    -0.5872359    -0.7815673
C           1.1861645     0.7319478    -1.3868512
H           0.3401560     1.3182758    -1.0017040
H           1.0728516     0.6567848    -2.4777912
H           2.1078016     1.2692604    -1.1663764
C           2.2506295    -1.1081262    -0.0503409
C           5.8115158     1.2008382     0.7337365
H           6.7251790     1.7454103     0.9559984
C           4.6814973     1.3654842     1.5373107
H           4.7076162     2.0405151     2.3879793
C           3.5203692     0.6463124     1.2549964
H           2.6452649     0.7561782     1.8904554
C           3.4653036    -0.2296937     0.1636050
C           4.6061546    -0.3862421    -0.6373719
O           4.5815377    -1.3013482    -1.6688591
C           4.5410331    -0.7461659    -2.9799219
H           4.5593860    -1.5910969    -3.6717979
H           5.4069641    -0.0996987    -3.1763697
H           3.6224436    -0.1656403    -3.1408979
C           5.7755495     0.3226610    -0.3486865
H           6.6538517     0.1633972    -0.9677654
O           2.2143836    -2.2268274     0.4485698
C           0.0199306    -1.4004763    -0.9878742
H          -0.8641623    -0.9041210    -0.5657588
H           0.1711046    -2.3597766    -0.4946576
H          -0.1540864    -1.5610067    -2.0601826
26
226_C10H13NO2_19-13-14-15 (-60,) energy =    -594.0793939
N           1.2211669    -0.5961443    -0.8103086
C           1.3266116     0.5746865    -1.6584588
H           0.4328678     1.2042058    -1.5461466
H           1.4074175     0.2916942    -2.7172538
H           2.1986571     1.1670805    -1.3826128
C           2.1273999    -0.9555233     0.1560096
C           5.8528540     1.1258406     0.7763799
H           6.8085307     1.6073352     0.9655081
C           4.8103224     1.2445924     1.6977160
H           4.9438288     1.8243843     2.6063904
C           3.6039143     0.5896955     1.4589909
H           2.8017275     0.6375353     2.1899396
C           3.4016719    -0.1489886     0.2862486
C           4.4537813    -0.2529556    -0.6381099
O           4.2856249    -1.0872575    -1.7223083
C           4.5127608    -0.5179670    -3.0088356
H           4.2217519    -1.2816983    -3.7334629
H           5.5692782    -0.2653805    -3.1677627
H           3.9062684     0.3827489    -3.1631692
C           5.6826325     0.3635563    -0.3780109
H           6.5035595     0.2342057    -1.0769782
O           1.9283795    -1.8846773     0.9333075
C           0.0161800    -1.3938956    -0.9763809
H          -0.8781401    -0.8002395    -0.7424109
H           0.0717279    -2.2455173    -0.2998094
H          -0.0660148    -1.7476609    -2.0125340
26
226_C10H13NO2_19-13-14-15 (-45,) energy =    -594.0817228
N           1.1983924    -0.6039598    -0.7987171
C           1.3587353     0.4735507    -1.7549308
H           0.4470090     1.0856575    -1.7787499
H           1.5354850     0.0877645    -2.7681688
H           2.1916930     1.1157185    -1.4699049
C           2.0714071    -0.8980987     0.2185326
C           5.8424983     1.1243445     0.7510516
H           6.8057108     1.6002302     0.9147887
C           4.8541298     1.1786404     1.7350547
H           5.0364080     1.7013266     2.6693959
C           3.6378130     0.5348134     1.5194881
H           2.8738842     0.5294569     2.2911410
C           3.3683139    -0.1256944     0.3144004
C           4.3719050    -0.1721084    -0.6697103
O           4.1282765    -0.9364431    -1.7856549
C           4.5738293    -0.4252285    -3.0381170
H           4.0756020    -1.0234205    -3.8042694
H           5.6593119    -0.5317154    -3.1627936
H           4.3022100     0.6306756    -3.1594120
C           5.6121467     0.4350211    -0.4385719
H           6.3961705     0.3625902    -1.1855844
O           1.8194402    -1.7420528     1.0760499
C          -0.0129967    -1.3974949    -0.9359451
H          -0.9045902    -0.7691440    -0.8060960
H          -0.0039300    -2.1743269    -0.1728317
H          -0.0572097    -1.8569886    -1.9324476
26
226_C10H13NO2_19-13-14-15 (-30,) energy =    -594.0837841
N           1.1780326    -0.3652510    -1.0200401
C           1.6030140     0.6876686    -1.9220580
H           0.7896198     1.4149920    -2.0462356
H           1.8597749     0.2890687    -2.9127691
H           2.4685621     1.2111896    -1.5168764
C           1.8790969    -0.8030230     0.0757501
C           5.8183932     0.6547964     1.0475270
H           6.8148905     0.9947925     1.3167825
C           4.7564753     0.8152895     1.9370869
H           4.9135692     1.2836825     2.9041305
C           3.4915159     0.3504897     1.5809518
H           2.6596713     0.4324565     2.2740200
C           3.2565411    -0.2346950     0.3322994
C           4.3390182    -0.3986074    -0.5531339
O           4.0860207    -1.0788585    -1.7156985
C           4.9183210    -0.8133652    -2.8377193
H           4.4133047    -1.2554148    -3.6990805
H           5.9066187    -1.2795320    -2.7319856
H           5.0450360     0.2650950    -2.9962226
C           5.6186017     0.0357473    -0.1868457
H           6.4578992    -0.1129106    -0.8577157
O           1.4108139    -1.6122642     0.8742387
C          -0.1102998    -0.9719222    -1.3167582
H          -0.9121557    -0.2228813    -1.2667444
H          -0.2999298    -1.7537500    -0.5827837
H          -0.1050327    -1.4042483    -2.3263677
26
226_C10H13NO2_19-13-14-15 (-15,) energy =    -594.0852248
N           1.1532887    -0.3514300    -1.0100401
C           1.5456869     0.7464332    -1.8732694
H           0.7161933     1.4612071    -1.9570334
H           1.7988811     0.3934970    -2.8817738
H           2.4062058     1.2699173    -1.4577048
C           1.8755762    -0.8170014     0.0600819
C           5.7975961     0.6892406     1.0207519
H           6.7901851     1.0454323     1.2834416
C           4.7485154     0.7995268     1.9312574
H           4.9109764     1.2414933     2.9097178
C           3.4871616     0.3200260     1.5786542
H           2.6634187     0.3646838     2.2847616
C           3.2459683    -0.2329545     0.3181564
C           4.3191702    -0.3524864    -0.5879263
O           4.0440956    -0.9802617    -1.7719563
C           5.0014344    -0.8984276    -2.8173091
H           4.5261325    -1.3439786    -3.6931729
H           5.9113973    -1.4643121    -2.5789306
H           5.2715643     0.1431042    -3.0351272
C           5.5931736     0.1050867    -0.2310069
H           6.4265414     0.0035868    -0.9169822
O           1.4328867    -1.6647695     0.8329222
C          -0.1283612    -0.9687871    -1.3130607
H          -0.9429121    -0.2378040    -1.2191736
H          -0.2924925    -1.7844000    -0.6103321
H          -0.1310501    -1.3574414    -2.3402490
26
226_C10H13NO2_19-13-14-15 (0,) energy =    -594.0858447
N           1.1432438    -0.3381355    -1.0087005
C           1.5002096     0.8041753    -1.8293760
H           0.6533466     1.5018052    -1.8733428
H           1.7506650     0.4994801    -2.8538885
H           2.3536960     1.3294761    -1.4018619
C           1.8930599    -0.8346304     0.0277517
C           5.7931870     0.7263119     0.9895889
H           6.7807844     1.0985794     1.2488647
C           4.7548930     0.7837994     1.9165621
H           4.9213148     1.1971088     2.9067922
C           3.4988773     0.2894506     1.5638960
H           2.6841524     0.2948109     2.2818259
C           3.2534252    -0.2298431     0.2905736
C           4.3180089    -0.3018911    -0.6311046
O           4.0280396    -0.8724174    -1.8397554
C           5.0655218    -0.9882711    -2.8009751
H           4.6141248    -1.4720825    -3.6689660
H           5.8909227    -1.6089128    -2.4294037
H           5.4568567    -0.0052981    -3.0951462
C           5.5844805     0.1793824    -0.2786808
H           6.4098075     0.1261167    -0.9792110
O           1.4831652    -1.7268717     0.7679712
C          -0.1289265    -0.9704706    -1.3206854
H          -0.9574182    -0.2620415    -1.1853822
H          -0.2655803    -1.8182884    -0.6509321
H          -0.1378970    -1.3156930    -2.3632488
26
226_C10H13NO2_19-13-14-15 (15,) energy =    -594.0855983
N           1.1401137    -0.3185191    -1.0131996
C           1.4638874     0.8612762    -1.7944397
H           0.6021090     1.5416861    -1.8025966
H           1.7097026     0.6001340    -2.8317742
H           2.3115202     1.3879714    -1.3572491
C           1.9137053    -0.8399297    -0.0074158
C           5.7925983     0.7677494     0.9651801
H           6.7747912     1.1532172     1.2256771
C           4.7638101     0.7722744     1.9049775
H           4.9338820     1.1540167     2.9072100
C           3.5133802     0.2665679     1.5493204
H           2.7072666     0.2313433     2.2760999
C           3.2639470    -0.2159265     0.2619814
C           4.3197833    -0.2385114    -0.6713377
O           4.0238926    -0.7458115    -1.9073080
C           5.0974042    -1.0701137    -2.7784518
H           4.6468009    -1.5880147    -3.6271621
H           5.8226830    -1.7317538    -2.2887060
H           5.6145285    -0.1713701    -3.1403894
C           5.5787559     0.2619779    -0.3188280
H           6.3935799     0.2543836    -1.0339131
O           1.5339427    -1.7703916     0.7013887
C          -0.1224440    -0.9652207    -1.3346712
H          -0.9632514    -0.2791140    -1.1650051
H          -0.2344427    -1.8393911    -0.6948607
H          -0.1362905    -1.2725473    -2.3889782
26
226_C10H13NO2_19-13-14-15 (30,) energy =    -594.0846221
N           1.1398239    -0.3069525    -1.0175435
C           1.4312965     0.9060853    -1.7603260
H           0.5550692     1.5673359    -1.7372422
H           1.6736904     0.6858215    -2.8077104
H           2.2719219     1.4354874    -1.3131617
C           1.9358117    -0.8484259    -0.0409648
C           5.7894394     0.8074660     0.9563122
H           6.7649689     1.2057497     1.2224535
C           4.7685478     0.7556548     1.9048190
H           4.9402784     1.1039627     2.9189445
C           3.5253409     0.2385336     1.5428617
H           2.7275948     0.1606005     2.2755444
C           3.2740394    -0.2043627     0.2404896
C           4.3210565    -0.1718253    -0.7000754
O           4.0280465    -0.6144009    -1.9637432
C           5.0884412    -1.1546721    -2.7429985
H           4.6136707    -1.6721656    -3.5791382
H           5.6852898    -1.8665433    -2.1602718
H           5.7463673    -0.3699718    -3.1396013
C           5.5715280     0.3460485    -0.3425894
H           6.3742515     0.3845872    -1.0712000
O           1.5869138    -1.8163145     0.6330555
C          -0.1109321    -0.9701574    -1.3516510
H          -0.9647096    -0.3080950    -1.1539492
H          -0.1994055    -1.8670753    -0.7402492
H          -0.1261681    -1.2430476    -2.4153878
26
226_C10H13NO2_19-13-14-15 (45,) energy =    -594.0833338
N           1.1511635    -0.3053217    -1.0249538
C           1.4055634     0.9401092    -1.7272192
H           0.5122669     1.5763284    -1.6759001
H           1.6471174     0.7622287    -2.7826919
H           2.2352289     1.4760720    -1.2677469
C           1.9719581    -0.8646599    -0.0801958
C           5.7878685     0.8582780     0.9533741
H           6.7538085     1.2734220     1.2284436
C           4.7748647     0.7433579     1.9065146
H           4.9459636     1.0584194     2.9316617
C           3.5425912     0.2084928     1.5359995
H           2.7535459     0.0831420     2.2714958
C           3.2931781    -0.1937360     0.2186725
C           4.3300213    -0.0955685    -0.7258752
O           4.0488343    -0.4822479    -2.0141783
C           5.0424840    -1.2417928    -2.6973993
H           4.5491225    -1.6641294    -3.5755290
H           5.4237532    -2.0518090    -2.0645129
H           5.8816265    -0.6174777    -3.0310655
C           5.5694074     0.4415495    -0.3593479
H           6.3595754     0.5307504    -1.0981459
O           1.6595937    -1.8715827     0.5538072
C          -0.0836693    -0.9897128    -1.3754147
H          -0.9526209    -0.3554778    -1.1545125
H          -0.1468234    -1.9071228    -0.7918966
H          -0.0967339    -1.2301360    -2.4470343
26
226_C10H13NO2_19-13-14-15 (60,) energy =    -594.0825642
N           1.1719130    -0.3076366    -1.0336681
C           1.3869544     0.9630331    -1.7037198
H           0.4752825     1.5705028    -1.6330190
H           1.6305461     0.8197463    -2.7638409
H           2.2020206     1.5112889    -1.2329195
C           2.0168414    -0.8732644    -0.1149442
C           5.7892831     0.9257734     0.9522033
H           6.7440344     1.3600135     1.2364917
C           4.7874351     0.7430585     1.9084183
H           4.9584757     1.0250402     2.9432645
C           3.5679954     0.1871593     1.5297526
H           2.7900663     0.0118242     2.2668587
C           3.3190915    -0.1727852     0.1986228
C           4.3414064    -0.0022552    -0.7487143
O           4.0811950    -0.3462795    -2.0583642
C           4.9496204    -1.3201717    -2.6359132
H           4.5649062    -1.5117572    -3.6399736
H           4.9372303    -2.2501867    -2.0541771
H           5.9823317    -0.9578637    -2.7135598
C           5.5695672     0.5523912    -0.3723103
H           6.3427822     0.6968422    -1.1209380
O           1.7416639    -1.9106920     0.4869677
C          -0.0438746    -1.0182123    -1.3989500
H          -0.9296652    -0.4154890    -1.1580970
H          -0.0781722    -1.9526608    -0.8406346
H          -0.0541766    -1.2295549    -2.4767223
26
226_C10H13NO2_19-13-14-15 (75,) energy =    -594.0825666
N           1.2124465    -0.3144737    -1.0541614
C           1.3861346     0.9884223    -1.6731199
H           0.4559887     1.5633790    -1.5777983
H           1.6325443     0.8946407    -2.7381165
H           2.1846847     1.5424817    -1.1814139
C           2.0830613    -0.8937159    -0.1692011
C           5.8004164     0.9901190     0.9506208
H           6.7422490     1.4436773     1.2473455
C           4.8065834     0.7471280     1.9024791
H           4.9721689     1.0044648     2.9447094
C           3.6027019     0.1647510     1.5129509
H           2.8338204    -0.0548577     2.2477807
C           3.3607951    -0.1615124     0.1716569
C           4.3724961     0.0744052    -0.7712324
O           4.1431043    -0.2397719    -2.0968535
C           4.8294688    -1.4031055    -2.5629071
H           4.5672650    -1.5121776    -3.6176579
H           4.5093626    -2.2952001    -2.0097012
H           5.9175590    -1.2936626    -2.4694321
C           5.5868038     0.6486749    -0.3835477
H           6.3468168     0.8329836    -1.1375078
O           1.8534381    -1.9720812     0.3778793
C           0.0193595    -1.0487829    -1.4469851
H          -0.8842645    -0.4837939    -1.1826692
H           0.0155806    -2.0049976    -0.9256758
H           0.0140226    -1.2184208    -2.5321547
26
226_C10H13NO2_19-13-14-15 (90,) energy =    -594.0829214
N           1.2560930    -0.3034515    -1.0634066
C           1.3904022     1.0401231    -1.6007052
H           0.4474319     1.5839852    -1.4625098
H           1.6285852     1.0184411    -2.6718349
H           2.1802157     1.5815594    -1.0815592
C           2.1744124    -0.9250933    -0.2601867
C           5.8204532     1.0550048     0.9253236
H           6.7464923     1.5331277     1.2329651
C           4.8297834     0.7699173     1.8680329
H           4.9811809     1.0217592     2.9138111
C           3.6455722     0.1536894     1.4662184
H           2.8794789    -0.0919567     2.1960762
C           3.4238285    -0.1636423     0.1205548
C           4.4322157     0.1144768    -0.8142410
O           4.2331128    -0.1913297    -2.1474209
C           4.6825634    -1.4988429    -2.5180943
H           4.4560225    -1.6119717    -3.5807278
H           4.1595539    -2.2732387    -1.9435245
H           5.7644159    -1.6026782    -2.3621492
C           5.6258220     0.7192198    -0.4142659
H           6.3828998     0.9279340    -1.1645937
O           2.0133322    -2.0647105     0.1765783
C           0.0875670    -1.0506118    -1.5039917
H          -0.8325563    -0.5314913    -1.2062091
H           0.1156386    -2.0373306    -1.0437355
H           0.0866378    -1.1535091    -2.5976654
26
226_C10H13NO2_19-13-14-15 (105,) energy =    -594.0829606
N           1.3114661    -0.3220743    -1.0635913
C           1.4376448     1.0270763    -1.5904543
H           0.4917787     1.5643529    -1.4451078
H           1.6724467     1.0153943    -2.6621176
H           2.2256832     1.5688235    -1.0695079
C           2.2075253    -0.9320351    -0.2256608
C           5.8062892     1.1260834     0.9797436
H           6.7113462     1.6390360     1.2936939
C           4.8334774     0.7768839     1.9189536
H           4.9762367     1.0126803     2.9696320
C           3.6751501     0.1210057     1.5049590
H           2.9176888    -0.1665891     2.2283791
C           3.4592848    -0.1744240     0.1532272
C           4.4609172     0.1503710    -0.7766835
O           4.2952856    -0.1209469    -2.1209378
C           4.4961121    -1.4923132    -2.4822541
H           4.2649429    -1.5645450    -3.5473669
H           3.8389051    -2.1615149    -1.9155767
H           5.5399440    -1.7887318    -2.3142206
C           5.6240465     0.8045255    -0.3650288
H           6.3709061     1.0526154    -1.1132316
O           2.0216238    -2.0577909     0.2377752
C           0.1366518    -1.0643668    -1.4964607
H          -0.7806550    -0.5560722    -1.1714901
H           0.1753291    -2.0597235    -1.0561147
H           0.1168143    -1.1431452    -2.5916401
26
226_C10H13NO2_19-13-14-15 (120,) energy =    -594.0821295
N           1.3525602    -0.3807640    -1.1212204
C           1.4815793     0.9727000    -1.6378724
H           0.5423168     1.5170443    -1.4737730
H           1.6971254     0.9682477    -2.7135427
H           2.2820870     1.5043188    -1.1264899
C           2.2070592    -0.9783982    -0.2292181
C           5.7386904     1.1612098     1.0320878
H           6.6131068     1.7154401     1.3623519
C           4.7713326     0.7560702     1.9541165
H           4.8863509     0.9868591     3.0092112
C           3.6503107     0.0565617     1.5122817
H           2.8891117    -0.2647344     2.2171990
C           3.4648649    -0.2346095     0.1541766
C           4.4760413     0.1244430    -0.7558233
O           4.3750902    -0.1168310    -2.1095970
C           4.3348106    -1.4906738    -2.5096550
H           4.1398152    -1.4864304    -3.5842783
H           3.5491512    -2.0541927    -1.9980852
H           5.3016671    -1.9740891    -2.3172525
C           5.5936899     0.8396730    -0.3162986
H           6.3422914     1.1227187    -1.0499807
O           1.9732278    -2.0787242     0.2714514
C           0.1616604    -1.1045691    -1.5421691
H          -0.7458925    -0.5991675    -1.1853672
H           0.2008362    -2.1096274    -1.1246005
H           0.1180168    -1.1561446    -2.6378680
26
226_C10H13NO2_19-13-14-15 (135,) energy =    -594.0810233
N           1.4325639    -0.4046706    -1.0647932
C           1.5411107     0.9354707    -1.6204490
H           0.5980665     1.4741255    -1.4602639
H           1.7411453     0.9057631    -2.6995314
H           2.3416026     1.4898898    -1.1338485
C           2.3054116    -0.9680262    -0.1635557
C           5.8085462     1.2461747     1.0496171
H           6.6749144     1.8156871     1.3751767
C           4.8586347     0.8129671     1.9784908
H           4.9764829     1.0385363     3.0342744
C           3.7564408     0.0869600     1.5389713
H           3.0107924    -0.2620982     2.2469821
C           3.5617118    -0.2024643     0.1788123
C           4.5556768     0.1889238    -0.7383739
O           4.5100490    -0.0586423    -2.0883460
C           4.1765651    -1.3762999    -2.5356834
H           4.7250423    -1.5307949    -3.4688352
H           3.1037321    -1.4741908    -2.7280793
H           4.4808908    -2.1313799    -1.8031439
C           5.6622748     0.9251070    -0.2962631
H           6.4039625     1.2185551    -1.0326142
O           2.0743180    -2.0422409     0.3889007
C           0.2285061    -1.1402173    -1.4248525
H          -0.6674651    -0.6179038    -1.0631550
H           0.2768436    -2.1281312    -0.9690954
H           0.1531155    -1.2348844    -2.5160462
26
226_C10H13NO2_19-13-14-15 (150,) energy =    -594.0803341
N           1.4660712    -0.4380197    -1.0449635
C           1.5580331     0.9116671    -1.5782185
H           0.6390711     1.4645930    -1.3440085
H           1.6792317     0.8998810    -2.6703434
H           2.4015926     1.4416871    -1.1392253
C           2.3931552    -1.0341280    -0.2221276
C           5.8281756     1.2937945     0.9752826
H           6.6713023     1.9000050     1.2955468
C           4.8620503     0.8828595     1.8983886
H           4.9431137     1.1605519     2.9450637
C           3.7893517     0.1145102     1.4604100
H           3.0267280    -0.2112775     2.1619040
C           3.6403118    -0.2466410     0.1106109
C           4.6549340     0.1172009    -0.7957883
O           4.6872443    -0.1914230    -2.1296987
C           4.1195913    -1.4136483    -2.6023255
H           4.7035018    -1.6959503    -3.4822647
H           3.0726134    -1.2834515    -2.8933752
H           4.1884782    -2.2045860    -1.8484061
C           5.7279491     0.9069645    -0.3556693
H           6.4840560     1.1831373    -1.0839958
O           2.2098664    -2.1427019     0.2766989
C           0.2548002    -1.1707806    -1.3852186
H          -0.6309821    -0.6562582    -0.9896107
H           0.3195539    -2.1663440    -0.9484711
H           0.1481486    -1.2479157    -2.4754432
26
226_C10H13NO2_19-13-14-15 (165,) energy =    -594.0797425
N           1.4122842    -0.3919938    -0.9642097
C           1.3412752     1.0310357    -1.2548584
H           0.5922160     1.5217698    -0.6183150
H           1.0504044     1.1880661    -2.3024161
H           2.3072318     1.5038966    -1.0847430
C           2.5229736    -1.0507173    -0.4931909
C           5.8448940     1.2715803     1.0124173
H           6.6791295     1.8340659     1.4229335
C           4.6594316     1.1298562     1.7398228
H           4.5547917     1.5743845     2.7249850
C           3.6135994     0.4024365     1.1852661
H           2.6884202     0.2792104     1.7431196
C           3.7066460    -0.1986199    -0.0838402
C           4.9097083    -0.0537540    -0.8047541
O           5.1888684    -0.5148198    -2.0582580
C           4.4089664    -1.5320064    -2.6813907
H           4.9571395    -1.7968518    -3.5881077
H           3.4159246    -1.1608092    -2.9629756
H           4.2957784    -2.4064419    -2.0363891
C           5.9634977     0.6868055    -0.2401005
H           6.8738276     0.7821395    -0.8235960
O           2.5441869    -2.2696213    -0.3349553
C           0.2038479    -1.1550869    -1.2428203
H          -0.6413098    -0.7503242    -0.6710824
H           0.3775446    -2.1921659    -0.9592098
H          -0.0480307    -1.1046662    -2.3106314
26
226_C10H13NO2_19-13-14-15 (180,) energy =    -594.0802092
N           1.3746907    -0.3486469    -0.9089933
C           1.2647403     1.0706243    -1.2069012
H           0.5501255     1.5589581    -0.5304833
H           0.9065503     1.2121563    -2.2360690
H           2.2325686     1.5586304    -1.1031777
C           2.5330688    -0.9968645    -0.5473400
C           5.8596271     1.2384901     1.0554720
H           6.7006856     1.7609010     1.5033631
C           4.6078064     1.2450727     1.6792456
H           4.4575923     1.7640036     2.6211442
C           3.5575217     0.5625819     1.0803183
H           2.5842844     0.5417592     1.5645179
C           3.7066933    -0.1400240    -0.1319652
C           4.9722582    -0.1276677    -0.7568172
O           5.3258984    -0.6866030    -1.9470475
C           4.4180110    -1.4364030    -2.7475109
H           4.9662451    -1.6591370    -3.6653986
H           3.5273851    -0.8460081    -2.9992612
H           4.1095275    -2.3588866    -2.2517841
C           6.0328938     0.5655318    -0.1442384
H           6.9917589     0.5567222    -0.6528930
O           2.5987114    -2.2232005    -0.4767323
C           0.1761670    -1.1379289    -1.1558803
H          -0.6684858    -0.7246726    -0.5903953
H           0.3657331    -2.1637956    -0.8433691
H          -0.0863889    -1.1279872    -2.2228150
