26
226_C10H13NO2_1-0-5-12 (-165,) energy =    -594.0852018
N           1.2850440    -0.0359492    -1.0099046
C           0.1685007     0.5079897    -1.7671004
H          -0.7760329     0.0421368    -1.4570280
H           0.3099513     0.3198217    -2.8405327
H           0.1172708     1.5804380    -1.5838143
C           2.1058953     0.8270966    -0.3267799
C           5.9595425    -0.3800930     1.1778193
H           6.9379380    -0.6588325     1.5601575
C           4.9756438     0.0926416     2.0434205
H           5.1759282     0.1915430     3.1060487
C           3.7310265     0.4523802     1.5265722
H           2.9595609     0.8524809     2.1777923
C           3.4404338     0.3181255     0.1664764
C           4.4526036    -0.1399570    -0.7021252
O           4.1282914    -0.1986220    -2.0295316
C           5.1349489    -0.5737805    -2.9569148
H           4.6693210    -0.5127177    -3.9421761
H           5.4838404    -1.6005456    -2.7839224
H           5.9920602     0.1104357    -2.9175815
C           5.7079708    -0.4911911    -0.1915449
H           6.4924148    -0.8438470    -0.8511145
O           1.7928157     1.9951918    -0.1054751
C           1.5255473    -1.4573383    -1.1762614
H           0.5996252    -2.0086260    -0.9670599
H           2.2905827    -1.7965962    -0.4777066
H           1.8492204    -1.6965236    -2.1977621
26
226_C10H13NO2_1-0-5-12 (-150,) energy =    -594.0824121
N           1.2643344    -0.0907850    -0.9192641
C           0.3319782     0.4695653    -1.8864065
H          -0.6641026     0.0240387    -1.7716835
H           0.6845421     0.2730527    -2.9093712
H           0.2625678     1.5440093    -1.7196131
C           2.0876897     0.7676207    -0.2249008
C           6.0104128    -0.3990803     1.1217738
H           7.0072285    -0.6679529     1.4611628
C           5.0557406     0.0494898     2.0317978
H           5.2970630     0.1391997     3.0866735
C           3.7865711     0.3962055     1.5688153
H           3.0354867     0.7763028     2.2551052
C           3.4435528     0.2731164     0.2198684
C           4.4262061    -0.1606543    -0.6944154
O           4.0525826    -0.2052499    -2.0097126
C           5.0304490    -0.5468347    -2.9803769
H           4.5275718    -0.4768303    -3.9465134
H           5.4024025    -1.5702158    -2.8387967
H           5.8766484     0.1515410    -2.9600484
C           5.7057529    -0.4982446    -0.2378099
H           6.4685887    -0.8313166    -0.9319102
O           1.7736510     1.9335228    -0.0001307
C           1.5088017    -1.5162232    -1.0534214
H           0.5584677    -2.0548116    -0.9493790
H           2.1827698    -1.8583608    -0.2669599
H           1.9470039    -1.7670683    -2.0287185
26
226_C10H13NO2_1-0-5-12 (-135,) energy =    -594.0778983
N           1.1939973    -0.0546984    -0.8695220
C           0.4967183     0.5008053    -2.0225223
H          -0.5025779     0.0597103    -2.1185774
H           1.0616424     0.2951601    -2.9439011
H           0.3951971     1.5773185    -1.8851538
C           2.0249401     0.7901033    -0.1521197
C           5.9847905    -0.3732009     1.0831332
H           6.9917617    -0.6421030     1.3910318
C           5.0540482     0.0604776     2.0245457
H           5.3243698     0.1378281     3.0733335
C           3.7713673     0.4078649     1.6006662
H           3.0373479     0.7756074     2.3118115
C           3.3921981     0.2997233     0.2602231
C           4.3503720    -0.1199425    -0.6861928
O           3.9428133    -0.1473231    -1.9924153
C           4.8977210    -0.4695216    -2.9927378
H           4.3699473    -0.3893523    -3.9445985
H           5.2787795    -1.4924229    -2.8748111
H           5.7399069     0.2338506    -2.9837403
C           5.6431689    -0.4567377    -0.2687913
H           6.3884774    -0.7771038    -0.9874590
O           1.7134469     1.9527848     0.0821820
C           1.4296093    -1.4887889    -0.9407437
H           0.4631250    -2.0073454    -0.9555088
H           1.9806378    -1.8224151    -0.0598611
H           1.9922171    -1.7745684    -1.8402825
26
226_C10H13NO2_1-0-5-12 (-120,) energy =    -594.0719983
N           1.1035064     0.0251884    -0.8432758
C           0.6481793     0.5754966    -2.1166668
H          -0.3269536     0.1518499    -2.3842910
H           1.3666864     0.3469442    -2.9169437
H           0.5410370     1.6567889    -2.0178110
C           1.9366274     0.8304262    -0.0644673
C           5.9387397    -0.3116916     1.0578875
H           6.9536260    -0.5777050     1.3413226
C           5.0281440     0.1163979     2.0214438
H           5.3216039     0.1917551     3.0641153
C           3.7357047     0.4592484     1.6268700
H           3.0155776     0.8217650     2.3545837
C           3.3238263     0.3535114     0.2946835
C           4.2625601    -0.0608753    -0.6738091
O           3.8332988    -0.0835540    -1.9729692
C           4.7701220    -0.4023705    -2.9918839
H           4.2238644    -0.3229293    -3.9332446
H           5.1556326    -1.4243112    -2.8820300
H           5.6101730     0.3034554    -2.9980725
C           5.5661032    -0.3922912    -0.2855674
H           6.2966744    -0.7061284    -1.0218946
O           1.6032540     1.9656099     0.2492964
C           1.3111599    -1.4179987    -0.8807218
H           0.3409860    -1.9077990    -1.0277445
H           1.7213656    -1.7622311     0.0710440
H           1.9842727    -1.7303039    -1.6916601
26
226_C10H13NO2_1-0-5-12 (-105,) energy =    -594.0648503
N           1.0472608     0.0070046    -0.8333732
C           0.7974623     0.6019907    -2.1456991
H          -0.1450631     0.2137436    -2.5498781
H           1.6078518     0.3792850    -2.8520196
H           0.6989824     1.6842771    -2.0342035
C           1.8785381     0.7376190     0.0408773
C           5.9690268    -0.2394319     1.0167790
H           6.9997047    -0.4660114     1.2765833
C           5.0683727     0.1707184     1.9977069
H           5.3836748     0.2708615     3.0318506
C           3.7569086     0.4602707     1.6304036
H           3.0413740     0.8059146     2.3701144
C           3.3086378     0.3254318     0.3094170
C           4.2387654    -0.0744236    -0.6751834
O           3.7931331    -0.1354050    -1.9658924
C           4.7198243    -0.4503224    -2.9955785
H           4.1523124    -0.4107887    -3.9268502
H           5.1384986    -1.4569193    -2.8691389
H           5.5368031     0.2808586    -3.0360360
C           5.5634497    -0.3525382    -0.3134491
H           6.2852568    -0.6517695    -1.0640669
O           1.4821564     1.7868860     0.5261638
C           1.2361498    -1.4412097    -0.8969759
H           0.2845182    -1.9013076    -1.1893384
H           1.5020586    -1.8256994     0.0909814
H           2.0057640    -1.7506017    -1.6186053
26
226_C10H13NO2_1-0-5-12 (-90,) energy =    -594.0653542
N           1.6508594    -0.4217625    -1.3178502
C           1.2602602     0.7915712    -2.0582134
H           0.3411316     1.2365286    -1.6455303
H           1.0830592     0.5285482    -3.1059428
H           2.0670684     1.5260659    -2.0268523
C           2.0398488    -0.1395616     0.0255698
C           6.1595847     0.5996580     1.1038309
H           7.1897437     0.7711567     1.4047444
C           5.1558282     0.4557178     2.0657109
H           5.3960795     0.5086088     3.1236410
C           3.8435818     0.2490219     1.6607209
H           3.0480067     0.1321909     2.3882656
C           3.4890805     0.1631724     0.3006634
C           4.5117165     0.3298737    -0.6578413
O           4.2508641     0.3637924    -2.0085286
C           4.5280525    -0.8503956    -2.7084155
H           4.3509158    -0.6413474    -3.7658147
H           3.8561686    -1.6486310    -2.3749735
H           5.5724866    -1.1588262    -2.5688749
C           5.8336965     0.5393393    -0.2475417
H           6.5914039     0.6787783    -1.0131088
O           1.2731215    -0.3367863     0.9575468
C           0.5469675    -1.3945198    -1.3596697
H          -0.3924331    -1.0014642    -0.9466001
H           0.8212621    -2.2874208    -0.7931331
H           0.3872940    -1.6734564    -2.4063949
26
226_C10H13NO2_1-0-5-12 (-75,) energy =    -594.0710687
N           1.6267424    -0.4164209    -1.3086468
C           1.3321860     0.8930485    -1.9110233
H           0.4115317     1.3249615    -1.4893408
H           1.2019032     0.7747351    -2.9911608
H           2.1618864     1.5816894    -1.7459127
C           2.0869713    -0.3715771     0.0223066
C           6.1220622     0.7916406     1.0594942
H           7.1304653     1.0735651     1.3507238
C           5.1376489     0.5795677     2.0280581
H           5.3708381     0.6918079     3.0829543
C           3.8528774     0.2274582     1.6334782
H           3.0755722     0.0478067     2.3682738
C           3.5057161     0.0719172     0.2785922
C           4.5101921     0.2968793    -0.6878156
O           4.2675595     0.2328659    -2.0425209
C           4.5050667    -1.0447605    -2.6344539
H           4.3350127    -0.9223406    -3.7065596
H           3.8111175    -1.7946856    -2.2387420
H           5.5396761    -1.3712633    -2.4642247
C           5.8051274     0.6464644    -0.2879004
H           6.5475861     0.8176791    -1.0617939
O           1.4331298    -0.8600186     0.9364468
C           0.4835482    -1.3224359    -1.4795971
H          -0.4321864    -0.9494373    -0.9993492
H           0.7181731    -2.2970537    -1.0480970
H           0.3014997    -1.4362203    -2.5531259
26
226_C10H13NO2_1-0-5-12 (-60,) energy =    -594.0762531
N           1.6096274    -0.3980174    -1.3116027
C           1.4214663     0.9673303    -1.8137647
H           0.5035969     1.4124069    -1.4004567
H           1.3426282     0.9518931    -2.9052089
H           2.2719843     1.5936045    -1.5449517
C           2.1563467    -0.5564608    -0.0381903
C           6.0748025     0.9387829     1.0142642
H           7.0540389     1.3078632     1.3074720
C           5.1021497     0.6670285     1.9793477
H           5.3157975     0.8202288     3.0332300
C           3.8543125     0.1994562     1.5826960
H           3.0897275    -0.0324653     2.3167638
C           3.5340899    -0.0021651     0.2288538
C           4.5297804     0.2691874    -0.7334943
O           4.3137716     0.1324104    -2.0884014
C           4.5037185    -1.1884596    -2.5963850
H           4.3407427    -1.1282058    -3.6748710
H           3.7840729    -1.8901041    -2.1597336
H           5.5252716    -1.5406116    -2.4003446
C           5.7877967     0.7314281    -0.3324317
H           6.5254996     0.9318370    -1.1037058
O           1.6140117    -1.2594750     0.8090742
C           0.4324102    -1.2332546    -1.5609946
H          -0.4560968    -0.8804115    -1.0175852
H           0.6348547    -2.2575426    -1.2458676
H           0.2213371    -1.2147899    -2.6349655
26
226_C10H13NO2_1-0-5-12 (-45,) energy =    -594.0798607
N           1.5310236    -0.3842235    -1.2412548
C           1.4393709     0.9961572    -1.7140939
H           0.5216332     1.4718119    -1.3366659
H           1.4197170     1.0191193    -2.8084717
H           2.2976311     1.5748565    -1.3766842
C           2.1818502    -0.6885629    -0.0583570
C           6.0038056     1.0345558     0.9899144
H           6.9607850     1.4597709     1.2803623
C           5.0471797     0.7222984     1.9586616
H           5.2518168     0.8996319     3.0105584
C           3.8270241     0.1790593     1.5692150
H           3.0787457    -0.0893090     2.3080783
C           3.5206097    -0.0485634     0.2178585
C           4.5027321     0.2545656    -0.7464164
O           4.2897089     0.0729385    -2.0974780
C           4.4742820    -1.2655956    -2.5598312
H           4.3067019    -1.2423767    -3.6390396
H           3.7572879    -1.9531919    -2.0964002
H           5.4957052    -1.6131656    -2.3558596
C           5.7334354     0.7904054    -0.3546955
H           6.4626972     1.0139350    -1.1276235
O           1.7488271    -1.5396324     0.7155982
C           0.3328895    -1.1734068    -1.5170640
H          -0.5336532    -0.8287859    -0.9339218
H           0.5169939    -2.2173107    -1.2634906
H           0.0968997    -1.0864405    -2.5826022
26
226_C10H13NO2_1-0-5-12 (-30,) energy =    -594.0818552
N           1.5089077    -0.3579774    -1.1825946
C           1.5044607     1.0193346    -1.6596070
H           0.5696539     1.5171592    -1.3634744
H           1.5849912     1.0496499    -2.7517200
H           2.3405757     1.5744428    -1.2383112
C           2.2509706    -0.7893827    -0.1073104
C           5.9854063     1.0868478     0.9859777
H           6.9223309     1.5506178     1.2826548
C           5.0331833     0.7419533     1.9479836
H           5.2228448     0.9323315     3.0004137
C           3.8380020     0.1474311     1.5526274
H           3.0963576    -0.1468904     2.2887218
C           3.5547788    -0.0926127     0.1998585
C           4.5340975     0.2363223    -0.7560978
O           4.3311649     0.0264964    -2.1054154
C           4.5211775    -1.3226165    -2.5359624
H           4.3239580    -1.3318348    -3.6103185
H           3.8297203    -2.0090712    -2.0331945
H           5.5525563    -1.6506308    -2.3505915
C           5.7392986     0.8228846    -0.3601025
H           6.4680207     1.0670314    -1.1272489
O           1.9128362    -1.7596996     0.5696793
C           0.3087242    -1.1180300    -1.5099940
H          -0.5710273    -0.7436626    -0.9663121
H           0.4595701    -2.1624253    -1.2394739
H           0.1153757    -1.0329378    -2.5849069
26
226_C10H13NO2_1-0-5-12 (-15,) energy =    -594.0827563
N           1.4022269    -0.3087216    -1.1358801
C           1.4672798     1.0583050    -1.6279005
H           0.5251677     1.5769582    -1.4030827
H           1.6262213     1.0783209    -2.7125603
H           2.2818447     1.5997115    -1.1499898
C           2.2377244    -0.8467644    -0.1905711
C           5.9063297     1.1290051     0.9413529
H           6.8297401     1.6162791     1.2425566
C           4.9529627     0.7750942     1.8987374
H           5.1287496     0.9816705     2.9505557
C           3.7734449     0.1492993     1.5009607
H           3.0331936    -0.1501300     2.2368642
C           3.5116899    -0.1091702     0.1488009
C           4.4920303     0.2263385    -0.8013749
O           4.2914857    -0.0123656    -2.1466930
C           4.5210127    -1.3654331    -2.5497579
H           4.2901472    -1.4109021    -3.6164183
H           3.8758790    -2.0645832    -2.0044344
H           5.5701357    -1.6475385    -2.3902112
C           5.6804491     0.8441596    -0.4047289
H           6.4115104     1.0958700    -1.1672594
O           1.9950391    -1.9145990     0.3724156
C           0.2150677    -1.0579175    -1.5208771
H          -0.6926053    -0.6049186    -1.0977644
H           0.3082711    -2.0769041    -1.1480314
H           0.1188964    -1.0645670    -2.6136655
26
226_C10H13NO2_1-0-5-12 (0,) energy =    -594.0830315
N           1.3346933    -0.2638764    -1.0336117
C           1.4478117     1.0933877    -1.5417547
H           0.4985163     1.6205349    -1.3841191
H           1.6784259     1.0995644    -2.6145512
H           2.2338301     1.6336726    -1.0158012
C           2.2663296    -0.8927642    -0.2511143
C           5.8895931     1.1404130     0.9194548
H           6.8053518     1.6402351     1.2233494
C           4.9289122     0.7928065     1.8719192
H           5.0931422     1.0172919     2.9219663
C           3.7569187     0.1516009     1.4733552
H           3.0114235    -0.1379089     2.2084186
C           3.5164947    -0.1297338     0.1228515
C           4.5007350     0.2016545    -0.8215114
O           4.2977276    -0.0632542    -2.1626890
C           4.6101109    -1.4064851    -2.5490768
H           4.3704861    -1.4831429    -3.6120715
H           4.0169736    -2.1340817    -1.9825268
H           5.6770993    -1.6177445    -2.3988782
C           5.6798306     0.8363505    -0.4254404
H           6.4149581     1.0876765    -1.1842615
O           2.1143560    -2.0392875     0.1716412
C           0.1612511    -1.0088292    -1.4655700
H          -0.7553803    -0.5027468    -1.1362408
H           0.2052149    -2.0053318    -1.0282894
H           0.1371833    -1.0867142    -2.5609812
26
226_C10H13NO2_1-0-5-12 (15,) energy =    -594.0831048
N           1.1181488    -0.1639858    -0.8745874
C           1.0304549     1.2846719    -0.9679709
H           0.2477412     1.6660510    -0.2990682
H           0.7782438     1.5869253    -1.9940771
H           1.9791369     1.7438197    -0.6947244
C           2.2755996    -0.8658219    -0.6501827
C           5.7997442     1.1214036     0.8413798
H           6.7007395     1.5974471     1.2188572
C           4.6680021     1.0174398     1.6524714
H           4.6833357     1.4046225     2.6673156
C           3.5118797     0.4161285     1.1541618
H           2.6280504     0.3329910     1.7816620
C           3.4758339    -0.0977679    -0.1481154
C           4.6204120     0.0073706    -0.9538643
O           4.5797164    -0.4297578    -2.2585364
C           5.0831842    -1.7576926    -2.4615974
H           5.0054000    -1.9487320    -3.5343465
H           4.4800823    -2.4823027    -1.9064178
H           6.1356192    -1.8294843    -2.1556732
C           5.7744895     0.6209719    -0.4604815
H           6.6374642     0.7099134    -1.1140192
O           2.3438527    -2.0862068    -0.7881890
C          -0.0687394    -0.8932670    -1.2983556
H          -0.9380301    -0.5568683    -0.7202521
H           0.0990541    -1.9566860    -1.1341764
H          -0.2745235    -0.7226541    -2.3642779
26
226_C10H13NO2_1-0-5-12 (30,) energy =    -594.0826394
N           1.0828895    -0.1825090    -0.7746034
C           1.0031943     1.2568432    -0.9893127
H           0.2118550     1.6890377    -0.3648328
H           0.7706232     1.4806223    -2.0406658
H           1.9488256     1.7334103    -0.7342106
C           2.2726591    -0.8734340    -0.7155533
C           5.7943585     1.0582092     0.8503418
H           6.6930362     1.5207522     1.2495924
C           4.6383075     0.9824372     1.6299115
H           4.6324977     1.3776093     2.6417643
C           3.4858597     0.3998916     1.1029235
H           2.5820373     0.3381997     1.7033408
C           3.4772207    -0.1282394    -0.1949442
C           4.6455153    -0.0477798    -0.9704828
O           4.6338509    -0.4827037    -2.2753010
C           5.1418673    -1.8089078    -2.4744705
H           5.0976288    -1.9897707    -3.5508700
H           4.5193144    -2.5365478    -1.9458328
H           6.1841859    -1.8854365    -2.1365158
C           5.7960366     0.5491750    -0.4481702
H           6.6774493     0.6206415    -1.0788508
O           2.3432471    -2.0754372    -0.9619445
C          -0.1083531    -0.9273580    -1.1643111
H          -0.9830971    -0.4892654    -0.6713128
H           0.0080646    -1.9674922    -0.8627526
H          -0.2668866    -0.8945846    -2.2519250
26
226_C10H13NO2_1-0-5-12 (45,) energy =    -594.0810545
N           1.0746951    -0.1477628    -0.6926936
C           0.9722178     1.2736554    -1.0182863
H           0.1636354     1.7315852    -0.4375259
H           0.7553454     1.4192551    -2.0870427
H           1.9048532     1.7851506    -0.7795855
C           2.2848631    -0.8139105    -0.8026013
C           5.8018220     1.0141247     0.8916554
H           6.6981283     1.4500551     1.3248665
C           4.6184520     0.9601191     1.6309121
H           4.5882334     1.3457119     2.6460048
C           3.4710864     0.4114661     1.0592789
H           2.5457892     0.3650491     1.6265559
C           3.4927449    -0.1077140    -0.2428896
C           4.6883573    -0.0448506    -0.9799714
O           4.7125199    -0.4558375    -2.2912708
C           5.2217119    -1.7785741    -2.5046305
H           5.2264314    -1.9285497    -3.5866375
H           4.5699597    -2.5157276    -2.0270782
H           6.2467289    -1.8729339    -2.1212280
C           5.8340108     0.5187025    -0.4115811
H           6.7369291     0.5779305    -1.0123585
O           2.3521108    -1.9796669    -1.1806278
C          -0.1126376    -0.9220350    -1.0446167
H          -0.9886301    -0.4465992    -0.5915812
H          -0.0063844    -1.9384134    -0.6662131
H          -0.2622636    -0.9746717    -2.1328686
26
226_C10H13NO2_1-0-5-12 (60,) energy =    -594.0778533
N           1.0570261    -0.1008002    -0.6229548
C           0.9009046     1.2842737    -1.0792402
H           0.0863275     1.7651649    -0.5273292
H           0.6668927     1.3264561    -2.1536212
H           1.8199431     1.8452601    -0.8993881
C           2.2733776    -0.7382623    -0.8826369
C           5.7933616     0.9526500     0.9402265
H           6.6881794     1.3552669     1.4075020
C           4.5862862     0.9252242     1.6414455
H           4.5348629     1.2983359     2.6603294
C           3.4420009     0.4192892     1.0266556
H           2.4973703     0.3924404     1.5610517
C           3.4887188    -0.0867112    -0.2807585
C           4.7090856    -0.0462891    -0.9814867
O           4.7663993    -0.4313713    -2.2987423
C           5.2532753    -1.7594867    -2.5262307
H           5.2946249    -1.8833649    -3.6107255
H           4.5671694    -2.4926043    -2.0928957
H           6.2609247    -1.8875585    -2.1080542
C           5.8517890     0.4748682    -0.3686541
H           6.7740132     0.5175373    -0.9408164
O           2.3257311    -1.8544606    -1.3849917
C          -0.1259476    -0.9147834    -0.9073046
H          -0.9948640    -0.4337850    -0.4470672
H           0.0068028    -1.9110223    -0.4842590
H          -0.3086844    -1.0235289    -1.9861268
26
226_C10H13NO2_1-0-5-12 (75,) energy =    -594.0728279
N           1.0651263    -0.0406940    -0.5773516
C           0.8193999     1.2825182    -1.1702595
H          -0.0093732     1.7703424    -0.6468771
H           0.5640879     1.2050856    -2.2381563
H           1.7093007     1.9090367    -1.0672658
C           2.2854950    -0.6391912    -0.9652948
C           5.8122018     0.8792572     0.9891303
H           6.7062170     1.2406236     1.4905142
C           4.5830480     0.8901976     1.6512523
H           4.5125740     1.2527659     2.6727728
C           3.4412835     0.4369391     0.9935073
H           2.4788392     0.4390372     1.4941179
C           3.5090016    -0.0572186    -0.3186496
C           4.7537138    -0.0511071    -0.9816671
O           4.8456395    -0.4108890    -2.3029700
C           5.2912489    -1.7497345    -2.5461519
H           5.3752392    -1.8465902    -3.6308909
H           4.5594308    -2.4673947    -2.1651324
H           6.2739767    -1.9282231    -2.0888783
C           5.8943067     0.4174438    -0.3240474
H           6.8348988     0.4337460    -0.8668839
O           2.3198215    -1.6843979    -1.5990548
C          -0.0910283    -0.9230685    -0.7717608
H          -0.9580750    -0.4606125    -0.2892549
H           0.1052530    -1.8911502    -0.3078172
H          -0.3206970    -1.0931969    -1.8332806
26
226_C10H13NO2_1-0-5-12 (90,) energy =    -594.0666991
N           1.0727253     0.0479705    -0.5555050
C           0.7135029     1.2747282    -1.2876490
H          -0.1477579     1.7461414    -0.8033974
H           0.4585229     1.0640422    -2.3381159
H           1.5494161     1.9808901    -1.2647304
C           2.2990584    -0.5138364    -1.0363354
C           5.8279937     0.7960957     1.0562773
H           6.7207883     1.1080580     1.5919478
C           4.5805160     0.8450266     1.6812960
H           4.4934355     1.1896606     2.7076885
C           3.4424466     0.4553730     0.9791715
H           2.4643197     0.4911969     1.4454960
C           3.5280276    -0.0154759    -0.3416719
C           4.7940517    -0.0452340    -0.9682163
O           4.9213586    -0.3728431    -2.2938921
C           5.3046149    -1.7252315    -2.5627262
H           5.4352429    -1.7912483    -3.6450977
H           4.5179209    -2.4143191    -2.2433926
H           6.2529343    -1.9728744    -2.0666722
C           5.9308972     0.3608018    -0.2643762
H           6.8872972     0.3505471    -0.7789045
O           2.3159069    -1.4603754    -1.8063726
C          -0.0343295    -0.9171835    -0.6316413
H          -0.9024924    -0.4769365    -0.1304103
H           0.2446618    -1.8366084    -0.1116633
H          -0.3090091    -1.1754313    -1.6640711
26
226_C10H13NO2_1-0-5-12 (105,) energy =    -594.0628558
N           1.2469660     0.1820781    -1.4746671
C           0.0199674     0.3791885    -0.6965505
H           0.0790923    -0.1118139     0.2894286
H          -0.8308954    -0.0451622    -1.2403825
H          -0.1530099     1.4483203    -0.5620558
C           2.3113620     1.0238387    -1.0798596
C           5.5537505    -0.5150401     1.3154127
H           6.3738148    -0.8840365     1.9254377
C           4.4309242     0.0481748     1.9159221
H           4.3658571     0.1287924     2.9968401
C           3.3896397     0.5248946     1.1152892
H           2.5212086     0.9902076     1.5732946
C           3.4532981     0.4283346    -0.2757168
C           4.5956128    -0.1358222    -0.8706019
O           4.5807474    -0.1816426    -2.2389581
C           5.7395240    -0.6476920    -2.9148773
H           5.5205854    -0.5534998    -3.9797484
H           5.9501496    -1.6990447    -2.6787427
H           6.6175468    -0.0376702    -2.6679745
C           5.6447961    -0.6081981    -0.0761967
H           6.5295894    -1.0424542    -0.5275259
O           2.2124578     2.2335350    -1.1738339
C           1.5498094    -1.2393073    -1.6496870
H           1.6730770    -1.7795518    -0.6964625
H           2.4571349    -1.3533226    -2.2442035
H           0.7211163    -1.7003856    -2.1979137
26
226_C10H13NO2_1-0-5-12 (120,) energy =    -594.0694879
N           1.2822545     0.1441351    -1.4160437
C          -0.0542868     0.4203722    -0.8875259
H          -0.2070652    -0.0807609     0.0819639
H          -0.8170056     0.0589596    -1.5860380
H          -0.1720076     1.4974323    -0.7661412
C           2.2946570     0.9988209    -0.9681906
C           5.6422089    -0.5062693     1.2999708
H           6.4888553    -0.8632824     1.8801313
C           4.5323370     0.0388032     1.9404220
H           4.5038385     0.1170277     3.0231075
C           3.4579033     0.5019540     1.1773059
H           2.5994205     0.9560799     1.6641057
C           3.4714248     0.4049154    -0.2151309
C           4.6018477    -0.1388664    -0.8503589
O           4.5409924    -0.1850946    -2.2177733
C           5.6868255    -0.6226502    -2.9335749
H           5.4302011    -0.5306404    -3.9902261
H           5.9294306    -1.6695859    -2.7086550
H           6.5585617     0.0065118    -2.7139774
C           5.6857933    -0.5954957    -0.0939680
H           6.5613821    -1.0139894    -0.5770308
O           2.1429024     2.2108993    -0.9714488
C           1.5578987    -1.2863293    -1.5298742
H           1.5561999    -1.8038843    -0.5570223
H           2.5186106    -1.4429251    -2.0202207
H           0.7800455    -1.7364919    -2.1560519
26
226_C10H13NO2_1-0-5-12 (135,) energy =    -594.0756433
N           1.3144113     0.1109910    -1.3576156
C          -0.0807690     0.4550375    -1.0921597
H          -0.4349188    -0.0405644    -0.1749365
H          -0.7168480     0.1354826    -1.9252527
H          -0.1591664     1.5356935    -0.9782196
C           2.2743683     0.9727055    -0.8461260
C           5.7303610    -0.4926472     1.2798986
H           6.6052102    -0.8368827     1.8249481
C           4.6388089     0.0356144     1.9646084
H           4.6526344     0.1134116     3.0476082
C           3.5289769     0.4833899     1.2449893
H           2.6842432     0.9277436     1.7634667
C           3.4850704     0.3836545    -0.1468684
C           4.5987985    -0.1408959    -0.8272734
O           4.4872037    -0.1900681    -2.1914007
C           5.6141551    -0.6037036    -2.9499339
H           5.3164608    -0.5162311    -3.9961847
H           5.8864824    -1.6456883    -2.7361210
H           6.4807014     0.0427201    -2.7621449
C           5.7192294    -0.5800733    -0.1145950
H           6.5816326    -0.9835627    -0.6328336
O           2.0791373     2.1797643    -0.7747713
C           1.5594910    -1.3257394    -1.4293694
H           1.4331891    -1.8278588    -0.4573396
H           2.5612665    -1.5188363    -1.8104340
H           0.8421263    -1.7618210    -2.1328091
26
226_C10H13NO2_1-0-5-12 (150,) energy =    -594.0804855
N           1.3283602     0.0743839    -1.2921654
C          -0.0737555     0.4788301    -1.2926518
H          -0.6122161     0.0097494    -0.4554016
H          -0.5565572     0.1742137    -2.2282910
H          -0.1237918     1.5623217    -1.1949340
C           2.2354604     0.9362010    -0.7085073
C           5.8051264    -0.4708805     1.2610454
H           6.7090454    -0.7984992     1.7675710
C           4.7362484     0.0397013     1.9936541
H           4.7962380     0.1204630     3.0748702
C           3.5891379     0.4665653     1.3226791
H           2.7609191     0.8998519     1.8756806
C           3.4814501     0.3606386    -0.0657731
C           4.5747616    -0.1433305    -0.7948005
O           4.4077147    -0.1965705    -2.1528450
C           5.5101669    -0.5874657    -2.9575229
H           5.1678958    -0.5049325    -3.9905095
H           5.8115497    -1.6242072    -2.7572793
H           6.3713256     0.0752986    -2.8049091
C           5.7337387    -0.5601457    -0.1313018
H           6.5797894    -0.9477434    -0.6871901
O           1.9986378     2.1323371    -0.5711168
C           1.5334862    -1.3676180    -1.3408056
H           1.2269104    -1.8646761    -0.4074876
H           2.5751223    -1.6009986    -1.5506639
H           0.9279107    -1.7764976    -2.1569861
26
226_C10H13NO2_1-0-5-12 (165,) energy =    -594.0839464
N           1.3510351     0.0414220    -1.1934503
C          -0.0057823     0.4996199    -1.4570100
H          -0.7144216     0.0189183    -0.7674009
H          -0.3010159     0.2495482    -2.4836144
H          -0.0397310     1.5793137    -1.3198336
C           2.2165051     0.9010426    -0.5587300
C           5.9021697    -0.4407823     1.2281937
H           6.8374869    -0.7526410     1.6853568
C           4.8670541     0.0566741     2.0164520
H           4.9847498     0.1419554     3.0925519
C           3.6786649     0.4619705     1.4071284
H           2.8731854     0.8835388     2.0010498
C           3.4966347     0.3463230     0.0276298
C           4.5585198    -0.1393438    -0.7610577
O           4.3250021    -0.1883623    -2.1079932
C           5.3786785    -0.6012383    -2.9641175
H           4.9825874    -0.5303859    -3.9786321
H           5.6809969    -1.6379669    -2.7644242
H           6.2535572     0.0545536    -2.8690815
C           5.7577671    -0.5356512    -0.1581825
H           6.5800745    -0.9099762    -0.7570354
O           1.9408534     2.0835046    -0.3689784
C           1.5536141    -1.3912097    -1.3266105
H           0.7638204    -1.9366893    -0.7904911
H           2.5157308    -1.6872626    -0.9141548
H           1.5184228    -1.6899464    -2.3820281
26
226_C10H13NO2_1-0-5-12 (180,) energy =    -594.0857808
N           1.3228261    -0.0023025    -1.1032053
C           0.0597933     0.5004484    -1.6213066
H          -0.7864682     0.0200595    -1.1113471
H          -0.0220321     0.2910807    -2.6960440
H           0.0212827     1.5755278    -1.4520235
C           2.1529294     0.8617615    -0.4343903
C           5.9313827    -0.4047207     1.2065759
H           6.8897312    -0.6992383     1.6260330
C           4.9243905     0.0873264     2.0340580
H           5.0871208     0.1858930     3.1031257
C           3.7057651     0.4680540     1.4717150
H           2.9187170     0.8840417     2.0935530
C           3.4644372     0.3347848     0.1022406
C           4.4993457    -0.1431821    -0.7270289
O           4.2174131    -0.2036120    -2.0640404
C           5.2456508    -0.6048819    -2.9558201
H           4.8131916    -0.5421616    -3.9559736
H           5.5688625    -1.6368897    -2.7646346
H           6.1144174     0.0628283    -2.8936506
C           5.7289065    -0.5157334    -0.1709813
H           6.5302608    -0.8846840    -0.8006998
O           1.8462975     2.0326297    -0.2170860
C           1.5517749    -1.4258718    -1.2698408
H           0.6630490    -1.9813874    -0.9416457
H           2.3992879    -1.7506123    -0.6674633
H           1.7486487    -1.6784802    -2.3197858
