18
160_C5H11NO_0-5-6-7 (-165,) energy =    -327.1439330
N           1.0950485    -0.6523012    -0.3241787
C           0.8889813     0.5108602    -1.1684364
H          -0.0602108     1.0050678    -0.9161823
H           0.8430515     0.2197867    -2.2272556
H           1.6892004     1.2386976    -1.0473516
C           2.1311819    -0.8240070     0.5685305
C           3.2606214     0.2129162     0.5639910
C           4.4903626    -0.2907919     1.3209390
H           4.2356154    -0.5464643     2.3521571
H           5.2725287     0.4761384     1.3286533
H           4.8945121    -1.1929124     0.8519476
H           2.8896277     1.1440577     1.0159675
H           3.5393013     0.4647129    -0.4663276
O           2.1700748    -1.7863304     1.3299001
C           0.0202870    -1.6334802    -0.3521989
H          -0.9219738    -1.1936548     0.0038961
H           0.2962103    -2.4650717     0.2942980
H          -0.1353670    -1.9948295    -1.3770954
18
160_C5H11NO_0-5-6-7 (-150,) energy =    -327.1428727
N           1.0934938    -0.6575651    -0.3047347
C           0.9074751     0.4562143    -1.2191416
H          -0.0874038     0.9009176    -1.0757674
H           0.9775884     0.1229980    -2.2641138
H           1.6471536     1.2375697    -1.0548492
C           2.0614138    -0.7503026     0.6726176
C           3.2111875     0.2638758     0.6620859
C           4.4905271    -0.3462346     1.2425026
H           4.3071156    -0.7430655     2.2432895
H           5.2831558     0.4078329     1.2962387
H           4.8460430    -1.1729762     0.6186439
H           2.9050549     1.1362509     1.2571542
H           3.4112210     0.6318970    -0.3489293
O           2.0351093    -1.6426429     1.5159722
C           0.0300392    -1.6521996    -0.3297522
H          -0.9270282    -1.2161779    -0.0097598
H           0.2971327    -2.4618697     0.3473241
H          -0.0931398    -2.0412051    -1.3484945
18
160_C5H11NO_0-5-6-7 (-135,) energy =    -327.1418218
N           1.1119508    -0.6500791    -0.2684216
C           0.9728017     0.3927077    -1.2711006
H          -0.0327114     0.8331765    -1.2188831
H           1.1066892    -0.0160762    -2.2824358
H           1.6939944     1.1938297    -1.1242037
C           2.0255132    -0.6902069     0.7633685
C           3.1808477     0.3151014     0.7912375
C           4.5002841    -0.3907894     1.1313157
H           4.3959691    -0.9589504     2.0582364
H           5.3077052     0.3399205     1.2483544
H           4.7867136    -1.0896644     0.3374812
H           2.9472543     1.0551988     1.5683602
H           3.2957015     0.8653045    -0.1453968
O           1.9520834    -1.5415493     1.6465277
C           0.0597151    -1.6579257    -0.2995665
H          -0.9184441    -1.2124351    -0.0698373
H           0.2884732    -2.4211760     0.4420592
H           0.0054696    -2.1097585    -1.2982080
18
160_C5H11NO_0-5-6-7 (-120,) energy =    -327.1413852
N           1.0953382    -0.6257123    -0.2011081
C           1.1172396     0.2976270    -1.3224764
H           0.2074212     0.9144317    -1.3375512
H           1.1582808    -0.2597427    -2.2685098
H           1.9795071     0.9594601    -1.2864823
C           1.9807357    -0.6828217     0.8535539
C           3.0968510     0.3554692     0.9823874
C           4.4753342    -0.3224936     0.9575202
H           4.5098794    -1.1204428     1.7037232
H           5.2668732     0.4014324     1.1784339
H           4.6849091    -0.7636493    -0.0239703
H           2.9445481     0.8214240     1.9631248
H           3.0552592     1.1587178     0.2441273
O           1.8951685    -1.5573454     1.7133352
C           0.0239363    -1.6122733    -0.2587964
H          -0.9509864    -1.1102415    -0.3148550
H           0.0721361    -2.2269071     0.6382459
H           0.1331384    -2.2505085    -1.1462651
18
160_C5H11NO_0-5-6-7 (-105,) energy =    -327.1416440
N           1.0995933    -0.6267382    -0.1502110
C           1.2619287     0.2229398    -1.3173208
H           0.4095847     0.9081466    -1.4297381
H           1.3165808    -0.3939047    -2.2248543
H           2.1748262     0.8126980    -1.2611988
C           1.9212720    -0.6660835     0.9553043
C           3.0402357     0.3660625     1.0999562
C           4.4131003    -0.2585658     0.8007129
H           4.5561338    -1.1539294     1.4127450
H           5.2187047     0.4483526     1.0258987
H           4.5040554    -0.5489309    -0.2527965
H           3.0086174     0.6678126     2.1517234
H           2.8863689     1.2699715     0.5047155
O           1.7774007    -1.5124340     1.8345348
C           0.0123983    -1.5914364    -0.2447995
H          -0.9398127    -1.0725009    -0.4160956
H          -0.0333202    -2.1511033     0.6879016
H           0.1795100    -2.2872683    -1.0786733
18
160_C5H11NO_0-5-6-7 (-90,) energy =    -327.1419979
N           1.2985453    -0.9089934    -0.0190419
C           0.7737966    -0.0356550     1.0157240
H           0.1979635    -0.6023653     1.7620706
H           0.1006082     0.7087685     0.5697528
H           1.5702330     0.5012046     1.5279386
C           2.6268730    -1.2065879    -0.2336248
C           3.6768206    -0.6007920     0.6989610
C           4.1839735     0.7575124     0.1847851
H           4.5414664     0.6599490    -0.8452401
H           5.0134376     1.1193532     0.8018084
H           3.3972472     1.5208932     0.1972171
H           4.5024216    -1.3175858     0.6944479
H           3.3268771    -0.5174473     1.7330301
O           2.9853325    -1.9225796    -1.1652355
C           0.2961506    -1.5061429    -0.8896210
H          -0.4226715    -2.0919010    -0.3008507
H           0.8035740    -2.1554191    -1.6013365
H          -0.2577783    -0.7286341    -1.4330698
18
160_C5H11NO_0-5-6-7 (-75,) energy =    -327.1418481
N           1.3278884    -0.8901078    -0.0363984
C           0.8194410     0.0130377     0.9800996
H           0.1058958    -0.5051729     1.6371300
H           0.2922663     0.8578905     0.5155753
H           1.6216778     0.4119984     1.5977105
C           2.6370060    -1.3008327    -0.1752010
C           3.7077412    -0.6332688     0.6901258
C           4.0623883     0.7855944     0.2114918
H           4.3625640     0.7679773    -0.8415329
H           4.8981470     1.1884926     0.7938357
H           3.2211028     1.4801493     0.3073527
H           4.5839488    -1.2797464     0.6018112
H           3.4236105    -0.6180562     1.7492891
O           2.9618942    -2.1404641    -1.0106247
C           0.3119532    -1.4848521    -0.8927062
H          -0.3919119    -2.0883292    -0.3024815
H           0.8086349    -2.1211761    -1.6234007
H          -0.2571963    -0.6999851    -1.4078791
18
160_C5H11NO_0-5-6-7 (-60,) energy =    -327.1405747
N           1.3933116    -0.8494300    -0.0891704
C           0.8856570     0.0546106     0.9292798
H           0.0943629    -0.4361662     1.5143266
H           0.4552723     0.9574855     0.4749474
H           1.6715940     0.3568645     1.6191805
C           2.6710245    -1.3709172    -0.1248911
C           3.7754114    -0.6528993     0.6567796
C           4.0211914     0.8021291     0.2225713
H           4.2359920     0.8529356    -0.8504369
H           4.8853063     1.2141766     0.7553555
H           3.1659284     1.4544663     0.4202970
H           4.6721289    -1.2520819     0.4845531
H           3.5719034    -0.6910233     1.7358951
O           2.9480470    -2.3330796    -0.8354238
C           0.3704995    -1.4689185    -0.9203619
H          -0.2761403    -2.1351370    -0.3307389
H           0.8599282    -2.0529149    -1.6981413
H          -0.2569274    -0.6912174    -1.3724854
18
160_C5H11NO_0-5-6-7 (-45,) energy =    -327.1381763
N           1.3829325    -0.7894096    -0.1358165
C           0.8677106     0.1201706     0.8785481
H           0.0307110    -0.3483639     1.4161802
H           0.5006437     1.0520566     0.4288037
H           1.6335718     0.3653395     1.6129433
C           2.6197015    -1.4030034    -0.0611639
C           3.7750266    -0.6634709     0.6258119
C           3.9570669     0.8198293     0.2669907
H           4.0390286     0.9514178    -0.8177144
H           4.8815908     1.1989231     0.7167295
H           3.1383895     1.4539355     0.6144748
H           4.6640036    -1.2332065     0.3460432
H           3.6758037    -0.7684275     1.7167807
O           2.8326815    -2.4681161    -0.6322171
C           0.3560063    -1.4445126    -0.9365531
H          -0.2322218    -2.1591933    -0.3421816
H           0.8324664    -1.9862664    -1.7524389
H          -0.3229309    -0.6840040    -1.3382637
18
160_C5H11NO_0-5-6-7 (-30,) energy =    -327.1351482
N           1.3937715    -0.7889832    -0.1669117
C           0.8701646     0.1836058     0.7853369
H          -0.0233514    -0.2234647     1.2790737
H           0.5875917     1.1222991     0.2914549
H           1.5993019     0.4023253     1.5637384
C           2.6087659    -1.4314162    -0.0132897
C           3.8091255    -0.6761782     0.5805328
C           3.9289335     0.8409738     0.3698852
H           3.7336437     1.1136465    -0.6732428
H           4.9494741     1.1608181     0.6085576
H           3.2545421     1.4270382     0.9977630
H           4.6681899    -1.1841097     0.1347426
H           3.8607157    -0.9052096     1.6556689
O           2.7836130    -2.5610587    -0.4596191
C           0.3684223    -1.4921024    -0.9298937
H          -0.2100168    -2.1843075    -0.3006327
H           0.8428455    -2.0676406    -1.7237872
H          -0.3177221    -0.7556514    -1.3622643
18
160_C5H11NO_0-5-6-7 (-15,) energy =    -327.1328991
N           1.3845866    -0.8001297    -0.1898352
C           0.8676288     0.2726476     0.6493614
H           0.0106993    -0.0902373     1.2349576
H           0.5279220     1.1227872     0.0437071
H           1.6196258     0.6226580     1.3510155
C           2.5936973    -1.4403414     0.0017828
C           3.8375499    -0.6899433     0.5151192
C           3.9358004     0.8430927     0.5314190
H           3.4847915     1.2907429    -0.3609630
H           4.9921158     1.1343669     0.5449417
H           3.4736359     1.3004025     1.4108507
H           4.6267389    -1.0942659    -0.1261663
H           4.0590782    -1.0884444     1.5147361
O           2.7466928    -2.6061886    -0.3513985
C           0.3484438    -1.5566380    -0.8854783
H          -0.2341966    -2.1834550    -0.1947830
H           0.8119660    -2.2057061    -1.6271306
H          -0.3318406    -0.8524313    -1.3769366
18
160_C5H11NO_0-5-6-7 (0,) energy =    -327.1315679
N           1.2884222    -0.9113394    -0.0686704
C           0.8556706     0.4562676     0.1800770
H           0.2679130     0.5196662     1.1054382
H           0.2195512     0.8036405    -0.6468515
H           1.6981685     1.1351237     0.2559594
C           2.5701412    -1.3274794    -0.3649173
C           3.8346319    -0.6288583     0.1759260
C           3.8482413     0.5976514     1.0973443
H           3.6181511     1.5314966     0.5742428
H           4.8558411     0.7119865     1.5136145
H           3.1591823     0.4947252     1.9422897
H           4.4526069    -0.4299731    -0.7082576
H           4.3445263    -1.4537114     0.6871945
O           2.7551057    -2.3736656    -0.9820096
C           0.2047984    -1.8028906    -0.4721750
H          -0.6433009    -1.6558588     0.2056310
H           0.5481954    -2.8349776    -0.4225503
H          -0.1287536    -1.5985163    -1.4998193
18
160_C5H11NO_0-5-6-7 (15,) energy =    -327.1328987
N           1.3131804    -0.8923147    -0.0651780
C           0.9068874     0.5031352     0.0353823
H           0.3728504     0.6963386     0.9748476
H           0.2331813     0.7564783    -0.7956548
H           1.7633085     1.1692091    -0.0225126
C           2.5879297    -1.3244744    -0.3769766
C           3.8413936    -0.5666795     0.1012021
C           3.7962601     0.4966148     1.2092088
H           3.5116477     1.4894791     0.8495962
H           4.7940295     0.5968611     1.6510121
H           3.1087012     0.2171926     2.0150101
H           4.3232038    -0.1521250    -0.7949187
H           4.4955643    -1.3861131     0.4144860
O           2.7625116    -2.3998616    -0.9429214
C           0.2180584    -1.8045793    -0.3781266
H          -0.6128321    -1.6071301     0.3082096
H           0.5605781    -2.8318773    -0.2625029
H          -0.1406869    -1.6741299    -1.4095177
18
160_C5H11NO_0-5-6-7 (30,) energy =    -327.1351484
N           1.3130900    -0.8801814    -0.0609658
C           0.9399218     0.5282703    -0.1227722
H           0.4680601     0.8636516     0.8098553
H           0.2251142     0.6876855    -0.9421992
H           1.8071294     1.1555108    -0.3225867
C           2.5834646    -1.3476590    -0.3439156
C           3.8156678    -0.5257759     0.0684825
C           3.7453165     0.3722317     1.3131279
H           3.1862081     1.2972398     1.1573549
H           4.7601720     0.6567548     1.6129253
H           3.2878554    -0.1549724     2.1577529
H           4.1368529     0.0698437    -0.7993314
H           4.5895724    -1.2863592     0.2000306
O           2.7511605    -2.4709151    -0.8087448
C           0.2060662    -1.8036022    -0.2836459
H          -0.6248607    -1.5244286     0.3734269
H           0.5331987    -2.8176541    -0.0572508
H          -0.1462648    -1.7793759    -1.3252751
18
160_C5H11NO_0-5-6-7 (45,) energy =    -327.1381769
N           1.3045736    -0.8465829    -0.0815419
C           0.9739348     0.5644646    -0.2280501
H           0.4284200     0.9387658     0.6481260
H           0.3371405     0.7138135    -1.1120064
H           1.8709205     1.1668826    -0.3639079
C           2.5703224    -1.3644285    -0.2853470
C           3.7900645    -0.4959147     0.0485572
C           3.7531711     0.2635722     1.3841863
H           2.9919568     1.0462198     1.4174677
H           4.7233315     0.7391485     1.5667676
H           3.5589031    -0.4214638     2.2170065
H           3.9664716     0.2140427    -0.7735717
H           4.6303606    -1.1936279     0.0321535
O           2.7288103    -2.5357966    -0.6150267
C           0.1744518    -1.7516296    -0.2510874
H          -0.6450170    -1.4252154     0.3989734
H           0.4830935    -2.7609486     0.0176277
H          -0.1872525    -1.7643627    -1.2898665
18
160_C5H11NO_0-5-6-7 (60,) energy =    -327.1405749
N           1.3143849    -0.8420533    -0.1421875
C           0.9967192     0.5671454    -0.3029730
H           0.3700302     0.9230939     0.5258624
H           0.4409300     0.7308493    -1.2379256
H           1.8981821     1.1760130    -0.3388637
C           2.5834061    -1.3816051    -0.2077010
C           3.7831078    -0.4590236     0.0299532
C           3.8045772     0.2175051     1.4110659
H           2.9706455     0.9094036     1.5589770
H           4.7342392     0.7827204     1.5401175
H           3.7576943    -0.5326483     2.2081183
H           3.8462423     0.3025432    -0.7596852
H           4.6565650    -1.1044706    -0.0850135
O           2.7571922    -2.5875397    -0.3589373
C           0.1749814    -1.7410864    -0.2638044
H          -0.6089127    -1.4374230     0.4404570
H           0.5048091    -2.7545730    -0.0411342
H          -0.2461129    -1.7204417    -1.2796804
18
160_C5H11NO_0-5-6-7 (75,) energy =    -327.1418454
N           1.2630963    -0.8024189    -0.2327576
C           0.9437683     0.6074115    -0.3648452
H           0.2970944     0.9394133     0.4597404
H           0.4059661     0.7918261    -1.3057115
H           1.8415999     1.2224052    -0.3624389
C           2.5272227    -1.3416707    -0.1203773
C           3.7174201    -0.3908756     0.0221118
C           3.8186684     0.2335240     1.4248746
H           2.9714908     0.8895429     1.6511835
H           4.7352493     0.8266212     1.5146804
H           3.8480520    -0.5501426     2.1892852
H           3.7044728     0.3941839    -0.7436836
H           4.5966196    -1.0107264    -0.1682689
O           2.7065177    -2.5560428    -0.0791586
C           0.1198474    -1.7007875    -0.3027793
H          -0.6027051    -1.4613070     0.4887462
H           0.4777896    -2.7214988    -0.1781273
H          -0.3892228    -1.6072154    -1.2720726
18
160_C5H11NO_0-5-6-7 (90,) energy =    -327.1419988
N           1.2300606    -0.7998304    -0.2858856
C           0.8976463     0.6045844    -0.4448031
H           0.1345669     0.8992932     0.2890750
H           0.4904070     0.8006485    -1.4470282
H           1.7678750     1.2411080    -0.2963820
C           2.4833005    -1.3160827    -0.0362295
C           3.6769321    -0.3614704     0.0178672
C           3.9184284     0.1742803     1.4395370
H           3.0966456     0.8138851     1.7821062
H           4.8413357     0.7627734     1.4792959
H           4.0133426    -0.6578820     2.1443764
H           3.5923222     0.4632500    -0.6973354
H           4.5339343    -0.9672907    -0.2885433
O           2.6584380    -2.5157441     0.1617555
C           0.0955828    -1.7103169    -0.3435301
H          -0.6145435    -1.4995284     0.4680555
H           0.4674900    -2.7287290    -0.2433661
H          -0.4330840    -1.5995514    -1.2995880
18
160_C5H11NO_0-5-6-7 (105,) energy =    -327.1416462
N           1.2178637    -0.7739029    -0.2936677
C           0.8487511     0.6080243    -0.5465556
H           0.0307191     0.9072993     0.1232710
H           0.4991976     0.7398391    -1.5804649
H           1.6834314     1.2848193    -0.3749168
C           2.4654305    -1.2382288     0.0623921
C           3.6553481    -0.2777510     0.0659094
C           4.0501263     0.1117800     1.5000594
H           3.2718524     0.7131074     1.9849623
H           4.9770112     0.6951462     1.5026734
H           4.2058866    -0.7893399     2.1004251
H           3.5076058     0.6113732    -0.5525296
H           4.4745675    -0.8471268    -0.3847668
O           2.6487704    -2.4107623     0.3811876
C           0.1090119    -1.7174369    -0.3339904
H          -0.6306326    -1.4845869     0.4446013
H           0.5027712    -2.7188728    -0.1686607
H          -0.3924744    -1.6692241    -1.3094394
18
160_C5H11NO_0-5-6-7 (120,) energy =    -327.1413843
N           1.1919102    -0.7481972    -0.2751464
C           0.7980294     0.5892465    -0.6832522
H          -0.0372772     0.9426027    -0.0628411
H           0.4617100     0.5933898    -1.7297543
H           1.6141346     1.3010740    -0.5830006
C           2.4346635    -1.1601810     0.1554616
C           3.6148852    -0.1868328     0.1541999
C           4.1739739    -0.0089863     1.5741697
H           3.4551128     0.5032143     2.2243656
H           5.0949448     0.5833768     1.5562552
H           4.3925955    -0.9863847     2.0119310
H           3.3995546     0.7852847    -0.2936458
H           4.3780596    -0.6607553    -0.4743723
O           2.6278602    -2.3108835     0.5426218
C           0.1077450    -1.7223001    -0.2911783
H          -0.6818973    -1.4343062     0.4162717
H           0.5114968    -2.6927909    -0.0085101
H          -0.3346075    -1.7801785    -1.2944406
18
160_C5H11NO_0-5-6-7 (135,) energy =    -327.1418220
N           1.1388050    -0.7022707    -0.2462106
C           0.7723342     0.5594492    -0.8674189
H           0.0073981     1.0807829    -0.2749608
H           0.3546615     0.3784074    -1.8676421
H           1.6302896     1.2186731    -0.9807583
C           2.3918105    -1.0777818     0.1893701
C           3.5127285    -0.0362088     0.2588810
C           4.2804131    -0.1596342     1.5818720
H           3.6386478     0.0957390     2.4324995
H           5.1415792     0.5170302     1.5907612
H           4.6305710    -1.1848385     1.7204904
H           3.1553589     0.9894191     0.1423755
H           4.1913989    -0.2341691    -0.5816090
O           2.6203657    -2.2277264     0.5575736
C           0.0771052    -1.7006148    -0.2413694
H          -0.8161262    -1.2930499     0.2489955
H           0.4291637    -2.5785159     0.2973504
H          -0.1948528    -1.9902316    -1.2661382
18
160_C5H11NO_0-5-6-7 (150,) energy =    -327.1428758
N           1.0879386    -0.6667593    -0.2328379
C           0.7953242     0.5490501    -0.9728060
H          -0.0256472     1.1061537    -0.5003887
H           0.4866411     0.3043394    -1.9991500
H           1.6648768     1.2007492    -1.0333637
C           2.3124398    -1.0201198     0.2932377
C           3.4150703     0.0430991     0.3586557
C           4.3555419    -0.2081369     1.5410218
H           3.8221299    -0.1059357     2.4918898
H           5.1810874     0.5116915     1.5322808
H           4.7640398    -1.2200839     1.4987453
H           2.9954239     1.0507668     0.4373483
H           3.9779717     0.0126423    -0.5852980
O           2.5159904    -2.1467058     0.7377401
C           0.0253688    -1.6626455    -0.2529486
H          -0.9046929    -1.2224966     0.1283103
H           0.3241985    -2.5010629     0.3740039
H          -0.1585825    -2.0249109    -1.2744916
18
160_C5H11NO_0-5-6-7 (165,) energy =    -327.1439339
N           1.0714034    -0.6420446    -0.2481060
C           0.8294845     0.5467674    -1.0459481
H          -0.0410794     1.0994936    -0.6659080
H           0.6217030     0.2729890    -2.0903777
H           1.6892935     1.2141672    -1.0382555
C           2.2494919    -0.9521639     0.3969610
C           3.3487924     0.1161507     0.4334308
C           4.4218651    -0.2154913     1.4715125
H           3.9946409    -0.2461421     2.4783573
H           5.2142059     0.5407630     1.4542519
H           4.8635217    -1.1953234     1.2753958
H           2.9138659     1.0987546     0.6524974
H           3.7990180     0.1976012    -0.5663213
O           2.4130721    -2.0360688     0.9497702
C           0.0057308    -1.6328920    -0.2796267
H          -0.9351021    -1.1868987     0.0682414
H           0.2852046    -2.4601569     0.3708880
H          -0.1496226    -2.0105922    -1.3001361
18
160_C5H11NO_0-5-6-7 (180,) energy =    -327.1443771
N           1.0820341    -0.6402113    -0.2953911
C           0.8634964     0.5380113    -1.1142574
H          -0.0473617     1.0657159    -0.7974166
H           0.7369553     0.2576917    -2.1697126
H           1.6992579     1.2318846    -1.0451117
C           2.1941941    -0.8853005     0.4805540
C           3.3025800     0.1739541     0.4898322
C           4.4681387    -0.2332494     1.3911566
H           4.1339551    -0.3743679     2.4224911
H           5.2461073     0.5379056     1.3769939
H           4.9062254    -1.1786500     1.0602199
H           2.8859621     1.1341659     0.8232625
H           3.6592195     0.3388929    -0.5359054
O           2.3023698    -1.9121923     1.1445158
C           0.0109259    -1.6246132    -0.3263047
H          -0.9306216    -1.1811156     0.0251879
H           0.2881518    -2.4540655     0.3225014
H          -0.1445545    -1.9939402    -1.3491696
