18
160_C5H11NO_1-0-5-6 (-165,) energy =    -327.1436273
N           0.9731653    -0.4617784    -0.1043219
C          -0.1585095     0.4541509    -0.1624672
H          -1.0967339    -0.0891124     0.0034680
H          -0.2135081     0.9472024    -1.1441618
H          -0.0306938     1.2079657     0.6129703
C           2.0936921    -0.0790986     0.6062618
C           3.3827719    -0.8733605     0.3719200
C           4.5507305    -0.3154763     1.1845891
H           4.7443383     0.7287419     0.9246037
H           5.4586702    -0.8982719     0.9948012
H           4.3317996    -0.3474159     2.2552761
H           3.6201051    -0.8587966    -0.7005980
H           3.2188135    -1.9293828     0.6275263
O           2.0733054     0.8762778     1.3757646
C           0.9666362    -1.5129444    -1.1081509
H          -0.0200940    -1.9899285    -1.1208155
H           1.7040209    -2.2825315    -0.8802391
H           1.1655351    -1.1251135    -2.1198788
18
160_C5H11NO_1-0-5-6 (-150,) energy =    -327.1408321
N           0.9149445    -0.5175820    -0.0020944
C          -0.1227490     0.4898116    -0.1973371
H          -1.1162699     0.0304328    -0.1379760
H          -0.0208532     0.9701757    -1.1823120
H          -0.0262392     1.2417472     0.5847210
C           2.0454069    -0.1463555     0.7104863
C           3.3641458    -0.8412718     0.3588238
C           4.5391680    -0.2741005     1.1540573
H           4.6562967     0.7970254     0.9688104
H           5.4684555    -0.7824984     0.8749204
H           4.3805844    -0.4014717     2.2284498
H           3.5346040    -0.7277892    -0.7208840
H           3.2825127    -1.9230329     0.5325230
O           2.0120953     0.7620049     1.5324384
C           0.9438641    -1.5487612    -1.0287966
H          -0.0687186    -1.9461427    -1.1571344
H           1.5894023    -2.3775512    -0.7353827
H           1.2823894    -1.1676832    -2.0062875
18
160_C5H11NO_1-0-5-6 (-135,) energy =    -327.1361421
N           0.8492269    -0.5745628     0.0742926
C          -0.0818634     0.5063999    -0.2444096
H          -1.1087895     0.1256853    -0.2806210
H           0.1568240     0.9548525    -1.2216723
H          -0.0122552     1.2674178     0.5322444
C           1.9929319    -0.2235159     0.7915844
C           3.3339101    -0.7968907     0.3250949
C           4.5076116    -0.2551033     1.1391963
H           4.5546617     0.8354541     1.0795791
H           5.4517136    -0.6688218     0.7684619
H           4.4035792    -0.5176402     2.1958163
H           3.4459312    -0.5455459    -0.7393640
H           3.3241128    -1.8943225     0.3658251
O           1.9450009     0.6205455     1.6762541
C           0.8962365    -1.6081057    -0.9519750
H          -0.1255473    -1.9475711    -1.1516953
H           1.4695811    -2.4715015    -0.6098714
H           1.3252994    -1.2540904    -1.9044908
18
160_C5H11NO_1-0-5-6 (-120,) energy =    -327.1302509
N           0.7907125    -0.6218549     0.1354727
C          -0.0152584     0.5195522    -0.3020687
H          -1.0547021     0.2086146    -0.4534829
H           0.3633007     0.9370445    -1.2497386
H           0.0122188     1.2883936     0.4703747
C           1.9555933    -0.2905427     0.8500307
C           3.3044304    -0.7338845     0.2787933
C           4.4837835    -0.2421423     1.1157258
H           4.4771917     0.8478351     1.1981790
H           5.4306178    -0.5553595     0.6626698
H           4.4356308    -0.6445615     2.1318606
H           3.3564934    -0.3373100    -0.7461320
H           3.3473178    -1.8250945     0.1680668
O           1.8985344     0.4751984     1.7994650
C           0.8492292    -1.6757408    -0.8724026
H          -0.1748635    -1.9694056    -1.1255477
H           1.3567893    -2.5586082    -0.4777279
H           1.3502645    -1.3661853    -1.8057594
18
160_C5H11NO_1-0-5-6 (-105,) energy =    -327.1240405
N           0.7497849    -0.6573228     0.1969629
C           0.0860717     0.5288280    -0.3516294
H          -0.9489661     0.2834069    -0.6128282
H           0.5920432     0.9010318    -1.2594966
H           0.0756059     1.3160500     0.4040558
C           1.9392964    -0.3562587     0.9124312
C           3.2821504    -0.6625487     0.2479086
C           4.4756879    -0.2210205     1.0924462
H           4.4263452     0.8491202     1.3101586
H           5.4143270    -0.4303384     0.5681299
H           4.4905748    -0.7471293     2.0516902
H           3.2699287    -0.1407039    -0.7213837
H           3.3631593    -1.7280019    -0.0020092
O           1.8805274     0.2977402     1.9376424
C           0.8098432    -1.7369280    -0.7864249
H          -0.2142288    -1.9996587    -1.0723517
H           1.2679607    -2.6269199    -0.3474803
H           1.3578137    -1.4727300    -1.7079392
18
160_C5H11NO_1-0-5-6 (-90,) energy =    -327.1261545
N           1.2278541    -0.6871156    -0.6411593
C           0.4971693     0.5904390    -0.6406109
H          -0.2206739     0.6547709     0.1926378
H          -0.0502099     0.6952861    -1.5829431
H           1.1973126     1.4286641    -0.5615816
C           2.1228094    -0.7987626     0.4696675
C           3.5210599    -0.2667344     0.1888617
C           4.3710320    -0.0672113     1.4426118
H           3.9618650     0.7279293     2.0755258
H           5.3977180     0.2054643     1.1767142
H           4.3947346    -0.9831898     2.0389607
H           3.4639378     0.6463665    -0.4166991
H           3.9724648    -1.0204591    -0.4725427
O           1.8646068    -1.4607465     1.4572729
C           0.2688832    -1.8017875    -0.6858135
H          -0.4440774    -1.7905334     0.1510096
H           0.8097394    -2.7506095    -0.6606750
H          -0.2850268    -1.7357503    -1.6278816
18
160_C5H11NO_1-0-5-6 (-75,) energy =    -327.1318153
N           1.2117106    -0.7255170    -0.6096013
C           0.5828034     0.6005689    -0.6669426
H          -0.1494001     0.7380774     0.1439411
H           0.0651252     0.7193790    -1.6244632
H           1.3367311     1.3885006    -0.5898604
C           2.1671316    -0.9081134     0.4148594
C           3.5149221    -0.2338974     0.1702554
C           4.3211038    -0.0057573     1.4496199
H           3.8401279     0.7388252     2.0939472
H           5.3298792     0.3504648     1.2158929
H           4.3995001    -0.9357944     2.0185156
H           3.3992573     0.6923620    -0.4033809
H           4.0471320    -0.9277253    -0.4959236
O           2.0240240    -1.7409497     1.2949725
C           0.1895837    -1.7784478    -0.6411993
H          -0.5016284    -1.7256450     0.2123976
H           0.6721449    -2.7569744    -0.6255754
H          -0.3819461    -1.6723535    -1.5688639
18
160_C5H11NO_1-0-5-6 (-60,) energy =    -327.1362657
N           1.1937467    -0.7770197    -0.5619099
C           0.6465743     0.5768594    -0.6691588
H          -0.0807426     0.7809873     0.1317620
H           0.1373076     0.6936770    -1.6318827
H           1.4388359     1.3252214    -0.6126793
C           2.2249480    -1.0277660     0.3492448
C           3.5213497    -0.2395197     0.1569246
C           4.2655261     0.0075533     1.4718057
H           3.7165390     0.7055945     2.1142923
H           5.2579884     0.4307472     1.2845315
H           4.3806136    -0.9314862     2.0191091
H           3.3641588     0.6940696    -0.3913425
H           4.1306818    -0.8748823    -0.5008697
O           2.1871181    -1.9818626     1.1140097
C           0.1395664    -1.7937670    -0.5749120
H          -0.5207749    -1.7240725     0.3018301
H           0.5911529    -2.7859014    -0.5796073
H          -0.4598390    -1.6585957    -1.4809750
18
160_C5H11NO_1-0-5-6 (-45,) energy =    -327.1403575
N           1.2195468    -0.5299771    -0.5276415
C           0.8330339     0.7449122    -1.1275311
H           0.0709222     1.2661436    -0.5272218
H           0.4177800     0.5674975    -2.1252175
H           1.6984508     1.4008809    -1.2367607
C           2.1079397    -0.5508375     0.5439960
C           3.3487105     0.3405030     0.4233591
C           4.4772959    -0.1311425     1.3415315
H           4.1465653    -0.1528492     2.3828514
H           5.3403389     0.5382341     1.2589176
H           4.7990192    -1.1438897     1.0800285
H           3.0798198     1.3767768     0.6751123
H           3.6755482     0.3566428    -0.6232337
O           1.9831265    -1.3499557     1.4630316
C           0.1168783    -1.4868528    -0.4441291
H          -0.6749685    -1.1537378     0.2432916
H           0.4968552    -2.4425402    -0.0842753
H          -0.3133417    -1.6120757    -1.4429500
18
160_C5H11NO_1-0-5-6 (-30,) energy =    -327.1429527
N           1.1705901    -0.5105488    -0.4865619
C           0.8631382     0.7559142    -1.1372410
H           0.1294734     1.3439674    -0.5636931
H           0.4388169     0.5620126    -2.1286586
H           1.7620673     1.3582309    -1.2707409
C           2.1381746    -0.6253848     0.4974361
C           3.3254274     0.3406989     0.4254767
C           4.4675765    -0.0923251     1.3448445
H           4.1280146    -0.1610181     2.3813922
H           5.2924432     0.6264248     1.2908881
H           4.8470824    -1.0783229     1.0611182
H           2.9889247     1.3504850     0.7009701
H           3.6716127     0.4107062    -0.6135730
O           2.1013380    -1.5226666     1.3319479
C           0.0473443    -1.4401500    -0.4229321
H          -0.7709758    -1.0531501     0.2027541
H           0.3911171    -2.3809164     0.0044699
H          -0.3371719    -1.6071401    -1.4348816
18
160_C5H11NO_1-0-5-6 (-15,) energy =    -327.1441349
N           1.1363071    -0.5089170    -0.4312081
C           0.8772373     0.7399221    -1.1279282
H           0.1543765     1.3686394    -0.5850199
H           0.4570253     0.5252322    -2.1177480
H           1.7933974     1.3117982    -1.2714489
C           2.1863233    -0.7108068     0.4415737
C           3.3247955     0.3150338     0.4250520
C           4.4731125    -0.0952196     1.3466963
H           4.1263950    -0.2030797     2.3778166
H           5.2686216     0.6574648     1.3205177
H           4.8933234    -1.0581581     1.0436308
H           2.9341727     1.2973223     0.7249942
H           3.6883064     0.4369695    -0.6041121
O           2.2364738    -1.6954796     1.1721215
C           0.0174160    -1.4410632    -0.3961635
H          -0.8467898    -1.0092768     0.1298082
H           0.3345865    -2.3422454     0.1262381
H          -0.2907050    -1.6901528    -1.4187087
18
160_C5H11NO_1-0-5-6 (0,) energy =    -327.1443771
N           1.0931989    -0.4856105    -0.2880415
C           0.8707329     0.6987812    -1.0968573
H          -0.0247485     1.2380392    -0.7562674
H           0.7145685     0.4237451    -2.1496658
H           1.7176510     1.3805879    -1.0462727
C           2.2152722    -0.7425595     0.4697061
C           3.3328915     0.3070346     0.4658809
C           4.5071037    -0.1124081     1.3502928
H           4.1859939    -0.2522110     2.3859472
H           5.2918836     0.6515764     1.3264814
H           4.9318117    -1.0612164     1.0117656
H           2.9295888     1.2702056     0.8068753
H           3.6768435     0.4705969    -0.5644120
O           2.3250702    -1.7727697     1.1282043
C           0.0124967    -1.4598780    -0.3036729
H          -0.9185491    -1.0091219     0.0661138
H           0.2934335    -2.2944252     0.3369292
H          -0.1644608    -1.8235960    -1.3250519
18
160_C5H11NO_1-0-5-6 (15,) energy =    -327.1441349
N           1.0390159    -0.4736590    -0.1521864
C           0.8805217     0.6478422    -1.0628431
H          -0.1300776     1.0609533    -0.9606390
H           1.0149217     0.3441077    -2.1127218
H           1.5902929     1.4437109    -0.8396979
C           2.2190192    -0.7984184     0.4859102
C           3.3276162     0.2596530     0.5004866
C           4.5243838    -0.1825011     1.3422764
H           4.2282247    -0.3628062     2.3793231
H           5.3029951     0.5879905     1.3297030
H           4.9476236    -1.1148608     0.9593636
H           2.9216431     1.2052976     0.8840414
H           3.6480682     0.4653493    -0.5302688
O           2.3656873    -1.8721652     1.0615403
C          -0.0089457    -1.4828212    -0.2258608
H          -0.9826361    -1.0230536    -0.0182136
H           0.2022711    -2.2549656     0.5122554
H          -0.0503306    -1.9445440    -1.2233744
18
160_C5H11NO_1-0-5-6 (30,) energy =    -327.1429527
N           1.0272494    -0.4464210    -0.0915724
C           0.8719653     0.6289863    -1.0617312
H          -0.1351023     1.0523844    -0.9774757
H           1.0038115     0.2711603    -2.0949811
H           1.5876828     1.4307745    -0.8784784
C           2.2626382    -0.8281208     0.4041181
C           3.3420420     0.2553474     0.4994051
C           4.5271789    -0.1960157     1.3532031
H           4.2114646    -0.4164161     2.3771458
H           5.2921840     0.5873080     1.3862301
H           4.9740578    -1.1073320     0.9479147
H           2.8984455     1.1720006     0.9084798
H           3.6888362     0.5122223    -0.5118048
O           2.4577173    -1.9567265     0.8412362
C          -0.0028358    -1.4773353    -0.1691380
H          -0.9876718    -1.0076030    -0.0730640
H           0.1496736    -2.1906908     0.6394229
H           0.0329632    -2.0225189    -1.1243312
18
160_C5H11NO_1-0-5-6 (45,) energy =    -327.1403612
N           1.0276085    -0.4120432    -0.0379935
C           0.8515807     0.6032290    -1.0736565
H          -0.1420742     1.0539018    -0.9785151
H           0.9379595     0.1750031    -2.0845748
H           1.5917917     1.3983056    -0.9685102
C           2.3066984    -0.8321592     0.3152201
C           3.3586835     0.2648587     0.5119605
C           4.5139312    -0.2095871     1.3949237
H           4.1602899    -0.4724675     2.3966898
H           5.2688014     0.5782833     1.4905295
H           4.9850065    -1.0999251     0.9712877
H           2.8756619     1.1507778     0.9410236
H           3.7496644     0.5746741    -0.4682693
O           2.5410850    -1.9987919     0.6027267
C           0.0113155    -1.4623046    -0.0872598
H          -0.9773274    -0.9945298    -0.0395008
H           0.1440599    -2.1311702     0.7625435
H           0.0747947    -2.0620875    -1.0074901
18
160_C5H11NO_1-0-5-6 (60,) energy =    -327.1360292
N           0.9813898    -0.3520868    -0.0127473
C           0.7078816     0.6459710    -1.0505490
H          -0.2571821     1.1252768    -0.8557963
H           0.6728064     0.1902869    -2.0522113
H           1.4776532     1.4218201    -1.0498216
C           2.3019664    -0.8030989     0.1107471
C           3.3512503     0.2656843     0.4332399
C           4.3266318    -0.2308457     1.5064242
H           3.8102236    -0.4040705     2.4567512
H           5.1166411     0.5081039     1.6770751
H           4.7828978    -1.1742350     1.1977313
H           2.8579410     1.1893765     0.7522291
H           3.9136678     0.5039446    -0.4813460
O           2.5740134    -1.9940601     0.1547450
C          -0.0204139    -1.4215469    -0.0143769
H          -1.0084492    -0.9674205     0.1108576
H           0.1749623    -2.1029479     0.8141839
H          -0.0119464    -2.0065130    -0.9456624
18
160_C5H11NO_1-0-5-6 (75,) energy =    -327.1310146
N           1.1872731    -0.3330496     0.0153844
C           0.6919199     0.6944007    -0.9102989
H          -0.2237246     1.1401892    -0.5081095
H           0.4677841     0.2725828    -1.9023294
H           1.4317443     1.4904335    -1.0319915
C           2.5104849    -0.7723610    -0.2151604
C           3.6051495     0.1986888     0.2124312
C           4.0719197    -0.1718702     1.6315519
H           3.2479550    -0.0837164     2.3478156
H           4.8789009     0.4944432     1.9543729
H           4.4405992    -1.2016053     1.6529245
H           3.2555050     1.2362517     0.1986116
H           4.4444472     0.1105434    -0.4859373
O           2.7718881    -1.9347781    -0.4799039
C           0.2226356    -1.4345753     0.1198087
H          -0.7259031    -1.0251088     0.4817869
H           0.5904199    -2.1756740     0.8310444
H           0.0500255    -1.9404972    -0.8411020
18
160_C5H11NO_1-0-5-6 (90,) energy =    -327.1249448
N           1.2224857    -0.2588384     0.0248470
C           0.6545506     0.6742418    -0.9620245
H          -0.2790685     1.0919510    -0.5716588
H           0.4444987     0.1786348    -1.9230815
H           1.3468768     1.5033595    -1.1427011
C           2.5384868    -0.6897984    -0.3372307
C           3.6542618     0.1907076     0.2031606
C           3.9816585    -0.2422620     1.6442578
H           3.1064340    -0.1269599     2.2917053
H           4.7927744     0.3715073     2.0500765
H           4.2977990    -1.2900260     1.6685765
H           3.3578559     1.2459807     0.1982977
H           4.5365980     0.0725728    -0.4339539
O           2.7610990    -1.7887367    -0.8106937
C           0.3051987    -1.3947603     0.2073813
H          -0.6354044    -1.0095494     0.6142759
H           0.7358911    -2.1012200     0.9203491
H           0.0973323    -1.9342507    -0.7276397
18
160_C5H11NO_1-0-5-6 (105,) energy =    -327.1240405
N           1.1351721    -0.0320439    -0.7258996
C          -0.1086025     0.1247555     0.0337466
H          -0.2972742    -0.7370941     0.6973435
H          -0.9530553     0.2155933    -0.6579152
H          -0.0512151     1.0353737     0.6323763
C           2.3006959     0.2299370     0.0424636
C           3.1477170    -0.9572605     0.5026463
C           4.3251777    -0.5399288     1.3813768
H           5.0064001     0.1182625     0.8337658
H           4.8863012    -1.4201067     1.7133297
H           3.9809924     0.0094227     2.2615946
H           3.4992574    -1.5451585    -0.3546824
H           2.4653258    -1.6265280     1.0489177
O           2.5026042     1.3503243     0.4739754
C           1.1179712    -1.2527959    -1.5295090
H           0.9968209    -2.1766780    -0.9370508
H           2.0332250    -1.3319331    -2.1216853
H           0.2767566    -1.1932181    -2.2282964
18
160_C5H11NO_1-0-5-6 (120,) energy =    -327.1302510
N           1.1400560    -0.0865391    -0.6594627
C          -0.1436117     0.2072343    -0.0193416
H          -0.4700460    -0.6264157     0.6242071
H          -0.9125732     0.3758986    -0.7811090
H          -0.0403347     1.1111019     0.5814118
C           2.2745449     0.1902786     0.1238416
C           3.2224669    -0.9643619     0.4561881
C           4.3661283    -0.5361636     1.3737033
H           4.9791795     0.2354435     0.8987586
H           5.0071650    -1.3923330     1.6101469
H           3.9822848    -0.1161501     2.3070596
H           3.6214338    -1.4235945    -0.4574796
H           2.6101765    -1.7466558     0.9290063
O           2.3996394     1.2786646     0.6630977
C           1.0980723    -1.3176718    -1.4420649
H           0.9151556    -2.2206136    -0.8343972
H           2.0277872    -1.4520125    -1.9992257
H           0.2851580    -1.2364111    -2.1712099
18
160_C5H11NO_1-0-5-6 (135,) energy =    -327.1361422
N           1.1374454    -0.1452594    -0.5869305
C          -0.1608853     0.2812866    -0.0671702
H          -0.6172295    -0.5101859     0.5480452
H          -0.8426461     0.5134839    -0.8929493
H          -0.0174278     1.1757547     0.5380885
C           2.2501249     0.1471469     0.2025788
C           3.2937634    -0.9546600     0.4058467
C           4.3973767    -0.5316801     1.3738888
H           4.9303991     0.3461703     0.9979533
H           5.1176819    -1.3457216     1.5096256
H           3.9813767    -0.2649333     2.3490708
H           3.7330754    -1.2562373    -0.5545556
H           2.7658998    -1.8444740     0.7775440
O           2.3208960     1.2010766     0.8205001
C           1.0706104    -1.3851400    -1.3501435
H           0.8066356    -2.2605035    -0.7330965
H           2.0186647    -1.5846903    -1.8525951
H           0.3025193    -1.2776009    -2.1231950
18
160_C5H11NO_1-0-5-6 (150,) energy =    -327.1408318
N           1.1139026    -0.2244322    -0.5029584
C          -0.1821045     0.3255443    -0.1186892
H          -0.7682630    -0.4144222     0.4471482
H          -0.7541988     0.6119522    -1.0088251
H          -0.0142667     1.2057466     0.5004795
C           2.2052152     0.0808628     0.2964715
C           3.3346155    -0.9504857     0.3771013
C           4.4256063    -0.5280983     1.3600714
H           4.8739360     0.4230089     1.0599898
H           5.2134421    -1.2879482     1.4037933
H           4.0155059    -0.3902430     2.3641524
H           3.7711366    -1.1151264    -0.6176187
H           2.8984694    -1.9152160     0.6714804
O           2.2310759     1.0977028     0.9800650
C           1.0321377    -1.4550349    -1.2755627
H           0.6731232    -2.3097438    -0.6790026
H           2.0000466    -1.7132589    -1.7070088
H           0.3294548    -1.3056145    -2.1024119
18
160_C5H11NO_1-0-5-6 (165,) energy =    -327.1436272
N           1.1018629    -0.3057974    -0.4245072
C          -0.1639279     0.3731814    -0.1801934
H          -0.8768927    -0.2962666     0.3231585
H          -0.6089365     0.7011993    -1.1274682
H           0.0268438     1.2384765     0.4528538
C           2.1807138     0.0036198     0.3800908
C           3.3799489    -0.9494575     0.3492327
C           4.4792261    -0.5125936     1.3169847
H           4.8446356     0.4871017     1.0671301
H           5.3204494    -1.2132070     1.2781283
H           4.1036478    -0.4730734     2.3430570
H           3.7809929    -1.0074930    -0.6721192
H           3.0350998    -1.9636171     0.5930039
O           2.1752674     0.9859089     1.1151777
C           1.0080854    -1.5113684    -1.2309937
H           0.5190266    -2.3376841    -0.6910028
H           1.9921870    -1.8455793    -1.5592753
H           0.4126399    -1.2980803    -2.1261435
18
160_C5H11NO_1-0-5-6 (180,) energy =    -327.1443760
N           1.0486041    -0.3847653    -0.2729210
C          -0.1595732     0.4206341    -0.1783980
H          -1.0056351    -0.1913359     0.1628683
H          -0.4169947     0.8464712    -1.1577590
H           0.0191427     1.2250577     0.5334498
C           2.1451069    -0.0384343     0.4866844
C           3.4010428    -0.9089996     0.3622703
C           4.5321300    -0.4031132     1.2574910
H           4.8015241     0.6253806     1.0029472
H           5.4185650    -1.0366223     1.1434125
H           4.2310828    -0.4086582     2.3085061
H           3.7296989    -0.9281573    -0.6856904
H           3.1519263    -1.9472919     0.6202546
O           2.1269805     0.9321752     1.2381016
C           0.9706459    -1.5141861    -1.1811772
H           0.1764575    -2.2079831    -0.8703429
H           1.9091650    -2.0645248    -1.2139986
H           0.7372313    -1.1743729    -2.2001486
