15
254_C5H6N2O2_0-2-11-10 (-165,) energy =    -454.0808229
N           1.4477935    -1.1810273     0.0483509
H           1.8587008    -1.2221631     0.9700313
C           2.1068735    -0.4892786    -0.9275188
O           1.7281611    -0.3799985    -2.0836910
C           0.2222963    -1.9114634    -0.2171641
H           0.3663654    -2.9918248    -0.0939161
H          -0.0646197    -1.7062616    -1.2492469
H          -0.5804503    -1.5825590     0.4523696
C           5.0718451     1.4036129    -0.1726821
H           5.8175904     2.1504098    -0.4049634
N           4.0445220     1.1040690    -1.0512573
C           3.3598891     0.1782185    -0.4534121
O           3.8537637    -0.1620533     0.7810179
C           4.9545208     0.6330652     0.9397414
H           5.5098562     0.5161007     1.8567309
15
254_C5H6N2O2_0-2-11-10 (-150,) energy =    -454.0796347
N           1.4241114    -1.1327202     0.0564323
H           1.8081032    -1.1212499     0.9906204
C           2.1443653    -0.5506273    -0.9474590
O           1.8133626    -0.5287585    -2.1229152
C           0.2042749    -1.8768081    -0.1996028
H           0.3355257    -2.9458672     0.0084896
H          -0.0433597    -1.7471606    -1.2538611
H          -0.6190280    -1.4945615     0.4138521
C           5.0104759     1.4610022    -0.1201909
H           5.6884325     2.2832863    -0.2990672
N           3.9719561     1.1726769    -0.9905631
C           3.3865997     0.1380501    -0.4715293
O           3.9495447    -0.2817201     0.7072147
C           4.9953324     0.5765318     0.9100099
H           5.5983761     0.4076945     1.7879186
15
254_C5H6N2O2_0-2-11-10 (-135,) energy =    -454.0776613
N           1.4029815    -1.0856822     0.0395703
H           1.7520940    -1.0123526     0.9847521
C           2.1830561    -0.6103370    -0.9755638
O           1.9064503    -0.6844641    -2.1627073
C           0.1876117    -1.8413516    -0.2073628
H           0.2985781    -2.8901428     0.0944091
H          -0.0126691    -1.7979477    -1.2785797
H          -0.6566833    -1.4027515     0.3354814
C           4.9422475     1.5134059    -0.0619509
H           5.5470332     2.4016449    -0.1759893
N           3.8856465     1.2389099    -0.9169778
C           3.4086231     0.1096291    -0.4947290
O           4.0526059    -0.3859361     0.6096486
C           5.0424234     0.5254431     0.8632860
H           5.7006480     0.3089087     1.6895205
15
254_C5H6N2O2_0-2-11-10 (-120,) energy =    -454.0751974
N           1.3725444    -1.0395866     0.0291859
H           1.6614671    -0.8730260     0.9829529
C           2.2181914    -0.6676702    -0.9752803
O           2.0173033    -0.8607916    -2.1640965
C           0.1721250    -1.8209332    -0.2154978
H           0.2601842    -2.8318937     0.2007111
H           0.0417348    -1.8899092    -1.2960639
H          -0.7034174    -1.3301250     0.2228676
C           4.8795500     1.5574889     0.0036431
H           5.4101038     2.4975629    -0.0454028
N           3.7786104     1.3023388    -0.8028348
C           3.4181001     0.0981337    -0.4873432
O           4.1753225    -0.4691974     0.5018990
C           5.1194557     0.4805855     0.7928645
H           5.8536530     0.2207037     1.5385525
15
254_C5H6N2O2_0-2-11-10 (-105,) energy =    -454.0733560
N           1.3231920    -1.0342000     0.0545141
H           1.4672751    -0.6856251     0.9917307
C           2.2515116    -0.7320566    -0.8947684
O           2.1864500    -1.0656289    -2.0678428
C           0.1352203    -1.8208391    -0.2321364
H           0.1203080    -2.7423065     0.3612177
H           0.1603976    -2.0768625    -1.2919094
H          -0.7741516    -1.2465194    -0.0226678
C           4.8370338     1.5815083     0.1105685
H           5.2939326     2.5604253     0.1331264
N           3.6359823     1.3534019    -0.5520696
C           3.4053154     0.0907896    -0.3723890
O           4.3501942    -0.5513495     0.3734432
C           5.2684031     0.4236965     0.6684886
H           6.1235105     0.1203162     1.2508237
15
254_C5H6N2O2_0-2-11-10 (-90,) energy =    -454.0737385
N           1.2976472    -1.0607740     0.1128089
H           1.3129714    -0.5725579     0.9976795
C           2.3022063    -0.8048279    -0.7682053
O           2.3594269    -1.2339561    -1.9104876
C           0.1038601    -1.8018366    -0.2615186
H          -0.1586643    -2.5162002     0.5249385
H           0.3245967    -2.3412631    -1.1832989
H          -0.7482334    -1.1338245    -0.4379619
C           4.8205185     1.5648688     0.2621528
H           5.2064986     2.5676269     0.3759098
N           3.5307964     1.3287266    -0.2018587
C           3.4214643     0.0359245    -0.1990153
O           4.5405560    -0.6204360     0.2143480
C           5.4293988     0.3794393     0.5107916
H           6.3968110     0.0715682     0.8736414
15
254_C5H6N2O2_0-2-11-10 (-75,) energy =    -454.0759079
N           1.2453244    -1.0685629     0.1712654
H           1.2128402    -0.4924093     1.0016439
C           2.3027835    -0.8941633    -0.6679482
O           2.4253075    -1.4189107    -1.7644969
C           0.0444234    -1.7802073    -0.2357097
H          -0.3187550    -2.4029978     0.5873908
H           0.3062936    -2.4151367    -1.0829617
H          -0.7528500    -1.0917436    -0.5429983
C           4.7139307     1.5662213     0.3871286
H           5.0294862     2.5813921     0.5802515
N           3.4005673     1.2603850     0.0507467
C           3.3975122    -0.0308211    -0.0946515
O           4.6119520    -0.6150568     0.0894449
C           5.4440312     0.4233541     0.4079937
H           6.4707263     0.1708039     0.6190848
15
254_C5H6N2O2_0-2-11-10 (-60,) energy =    -454.0789130
N           1.2433500    -1.0477607     0.1592474
H           1.1884773    -0.3886032     0.9247774
C           2.3445106    -0.9738711    -0.6398643
O           2.5068425    -1.5953640    -1.6795048
C           0.0343549    -1.7376482    -0.2593965
H          -0.4063333    -2.2680200     0.5901332
H           0.3125768    -2.4566978    -1.0309583
H          -0.7096276    -1.0452189    -0.6737021
C           4.6518775     1.5561667     0.4666005
H           4.9078391     2.5689216     0.7427402
N           3.3420734     1.1774683     0.2044074
C           3.4225583    -0.0899921    -0.0789716
O           4.6876647    -0.5835488    -0.0599233
C           5.4639643     0.4809162     0.3036954
H           6.5213222     0.2947754     0.4030511
15
254_C5H6N2O2_0-2-11-10 (-45,) energy =    -454.0819940
N           1.2363152    -1.0189206     0.1492125
H           1.1758906    -0.2875742     0.8462480
C           2.3719743    -1.0531992    -0.6037685
O           2.5583956    -1.7720565    -1.5748869
C           0.0230232    -1.7041266    -0.2615354
H          -0.4684501    -2.1499344     0.6086349
H           0.3068887    -2.4920959    -0.9604412
H          -0.6816227    -1.0265396    -0.7609116
C           4.6082383     1.5152255     0.5519439
H           4.8244531     2.5115631     0.9097431
N           3.3086441     1.0775075     0.3436641
C           3.4424683    -0.1498424    -0.0711951
O           4.7307482    -0.5574303    -0.1874055
C           5.4678443     0.5154958     0.2260169
H           6.5389654     0.3920679     0.2304152
15
254_C5H6N2O2_0-2-11-10 (-30,) energy =    -454.0845434
N           1.2234118    -0.9783062     0.1181421
H           1.1635071    -0.1941923     0.7557389
C           2.3889834    -1.1177449    -0.5736694
O           2.5936793    -1.9252598    -1.4692375
C           0.0112413    -1.6747163    -0.2721181
H          -0.5157560    -2.0396319     0.6150314
H           0.3005323    -2.5220816    -0.8953933
H          -0.6653116    -1.0288441    -0.8469245
C           4.5891506     1.4626146     0.6235800
H           4.7883652     2.4313696     1.0586665
N           3.2999929     0.9806331     0.4642691
C           3.4562471    -0.1947691    -0.0766066
O           4.7485190    -0.5260118    -0.3142478
C           5.4654182     0.5400519     0.1458479
H           6.5383592     0.4724208     0.0633235
15
254_C5H6N2O2_0-2-11-10 (-15,) energy =    -454.0861549
N           1.2021860    -0.9245168     0.0549477
H           1.1435072    -0.1083144     0.6507464
C           2.3995088    -1.1647362    -0.5466620
O           2.6285059    -2.0575505    -1.3515511
C           0.0011457    -1.6604618    -0.2897785
H          -0.5308864    -1.9678656     0.6165370
H           0.3039059    -2.5467520    -0.8493665
H          -0.6769307    -1.0634738    -0.9132363
C           4.5821585     1.4157014     0.6861302
H           4.7777159     2.3518393     1.1890061
N           3.3020718     0.9027936     0.5615731
C           3.4603712    -0.2170569    -0.0866846
O           4.7459280    -0.4852208    -0.4178785
C           5.4564046     0.5644668     0.0865281
H           6.5237954     0.5426134    -0.0643885
15
254_C5H6N2O2_0-2-11-10 (0,) energy =    -454.0867059
N           1.1871025    -0.8519497    -0.0190890
H           1.1351133    -0.0031834     0.5297420
C           2.4122794    -1.2118262    -0.4890455
O           2.6570951    -2.2018184    -1.1657103
C          -0.0071155    -1.6313901    -0.2785991
H          -0.4591601    -1.9846416     0.6557949
H           0.2855645    -2.4924692    -0.8812816
H          -0.7504643    -1.0435646    -0.8300441
C           4.6198966     1.3637890     0.7103859
H           4.8318076     2.2767198     1.2480837
N           3.3413097     0.8393161     0.6296311
C           3.4763335    -0.2432213    -0.0840637
O           4.7470217    -0.4829225    -0.4867823
C           5.4708891     0.5523407     0.0274923
H           6.5288098     0.5530218    -0.1807978
15
254_C5H6N2O2_0-2-11-10 (15,) energy =    -454.0861549
N           1.1685112    -0.8160002    -0.1162093
H           1.0916688     0.0586716     0.3874281
C           2.4241502    -1.2440472    -0.4217731
O           2.7059953    -2.3070716    -0.9583796
C          -0.0012600    -1.6526543    -0.3022053
H          -0.3689429    -2.0554912     0.6503769
H           0.2844884    -2.4841026    -0.9482353
H          -0.8056524    -1.0827657    -0.7788015
C           4.5997899     1.3589520     0.7754645
H           4.8097017     2.2488521     1.3512216
N           3.3337351     0.8008552     0.7221249
C           3.4665077    -0.2367640    -0.0557441
O           4.7268636    -0.4237688    -0.5148604
C           5.4432354     0.6069155     0.0195089
H           6.4906109     0.6495248    -0.2330092
15
254_C5H6N2O2_0-2-11-10 (30,) energy =    -454.0845434
N           1.1619943    -0.7804287    -0.1938603
H           1.0670091     0.1166628     0.2656579
C           2.4297266    -1.2488939    -0.3670567
O           2.7281618    -2.3583080    -0.7867710
C           0.0009957    -1.6416485    -0.3243564
H          -0.3700627    -1.9798138     0.6519817
H           0.2981555    -2.5143086    -0.9077511
H          -0.8033707    -1.1131548    -0.8455225
C           4.6316417     1.3258203     0.8391080
H           4.8692047     2.1710752     1.4688549
N           3.3718647     0.7492146     0.8289301
C           3.4637151    -0.2187516    -0.0389047
O           4.6939165    -0.3500841    -0.5916396
C           5.4313187     0.6499303    -0.0274267
H           6.4573139     0.7334965    -0.3482641
15
254_C5H6N2O2_0-2-11-10 (45,) energy =    -454.0819940
N           1.1586666    -0.7687652    -0.2451983
H           1.0377921     0.1572669     0.1449698
C           2.4330547    -1.2498451    -0.2939195
O           2.7502274    -2.3898020    -0.6012943
C           0.0041523    -1.6432752    -0.3575697
H          -0.4085784    -1.9059288     0.6251270
H           0.3271407    -2.5572198    -0.8578977
H          -0.7760034    -1.1592769    -0.9530445
C           4.6784038     1.2892933     0.9079699
H           4.9579544     2.0816350     1.5873107
N           3.4298103     0.6873174     0.9585858
C           3.4569885    -0.1965393     0.0023098
O           4.6369862    -0.2553716    -0.6636044
C           5.4074479     0.7100811    -0.0807759
H           6.3982893     0.8452166    -0.4839208
15
254_C5H6N2O2_0-2-11-10 (60,) energy =    -454.0789130
N           1.1575769    -0.7714408    -0.2764021
H           1.0107147     0.1839841     0.0221452
C           2.4306911    -1.2513625    -0.2025819
O           2.7606846    -2.4128381    -0.3910922
C           0.0084747    -1.6542243    -0.3910060
H          -0.4621444    -1.8422655     0.5825317
H           0.3579291    -2.6026771    -0.8009645
H          -0.7326573    -1.2169193    -1.0667938
C           4.7501211     1.2398042     0.9651644
H           5.0924457     1.9743984     1.6797463
N           3.5168379     0.6146528     1.0914277
C           3.4506540    -0.1804149     0.0634567
O           4.5568473    -0.1621465    -0.7242350
C           5.3765486     0.7625246    -0.1402673
H           6.3175377     0.9511810    -0.6316673
15
254_C5H6N2O2_0-2-11-10 (75,) energy =    -454.0759079
N           1.1525516    -0.7697009    -0.2999159
H           0.9947543     0.2100521    -0.1056980
C           2.4127081    -1.2481337    -0.1101203
O           2.7373689    -2.4239017    -0.1805196
C           0.0041444    -1.6504118    -0.4404109
H          -0.5468335    -1.7552366     0.5027159
H           0.3734003    -2.6311944    -0.7425084
H          -0.6724529    -1.2637308    -1.2084964
C           4.8322985     1.1850413     0.9878573
H           5.2541181     1.8579537     1.7204558
N           3.6285622     0.5261260     1.2079974
C           3.4415025    -0.1724403     0.1284712
O           4.4389177    -0.0576897    -0.7891790
C           5.3191979     0.8254742    -0.2259253
H           6.1891175     1.0778610    -0.8107198
15
254_C5H6N2O2_0-2-11-10 (90,) energy =    -454.0737385
N           1.2194118    -0.8086789    -0.2846858
H           1.0767003     0.1885142    -0.2020716
C           2.4550820    -1.2970878     0.0075656
O           2.7470348    -2.4822294     0.0569214
C           0.0637115    -1.6724013    -0.4656874
H          -0.5784517    -1.6805731     0.4236918
H           0.4309815    -2.6837637    -0.6435733
H          -0.5235082    -1.3409528    -1.3276994
C           4.9670848     1.0928862     1.0060148
H           5.4750726     1.7026666     1.7392009
N           3.8326998     0.3564600     1.3305172
C           3.5042905    -0.2307308     0.2211689
O           4.3363237     0.0374814    -0.8227787
C           5.2696499     0.8940399    -0.3003976
H           6.0323966     1.2453405    -0.9765161
15
254_C5H6N2O2_0-2-11-10 (105,) energy =    -454.0733560
N           1.2641261    -0.8438354    -0.2456486
H           1.2047572     0.1601236    -0.3414640
C           2.4543417    -1.3851773     0.1345375
O           2.6555889    -2.5764488     0.3133557
C           0.0820524    -1.6494684    -0.5023660
H          -0.7360630    -1.3691099     0.1705096
H           0.3510947    -2.6911021    -0.3237123
H          -0.2539483    -1.5365923    -1.5395537
C           5.0270438     0.9696259     1.0749022
H           5.6229302     1.5008783     1.8030742
N           4.0322535     0.0772535     1.4592292
C           3.5459271    -0.3619441     0.3410719
O           4.1246810     0.1750630    -0.7716126
C           5.0818755     1.0245077    -0.2785619
H           5.6791390     1.5515514    -1.0051040
15
254_C5H6N2O2_0-2-11-10 (120,) energy =    -454.0751974
N           1.3168066    -0.8599459    -0.2540890
H           1.3583579     0.1033454    -0.5561381
C           2.4559793    -1.4333998     0.2315336
O           2.5573695    -2.6000807     0.5772379
C           0.1124082    -1.6284697    -0.5189955
H          -0.7507130    -1.1776732    -0.0175626
H           0.2724139    -2.6328013    -0.1251698
H          -0.0933198    -1.6931445    -1.5944114
C           5.0923340     0.8722715     1.0835772
H           5.7707506     1.3361156     1.7851694
N           4.2268748    -0.1412891     1.4724874
C           3.5907088    -0.4576757     0.3886026
O           3.9383724     0.2940749    -0.7012834
C           4.9168406     1.1332586    -0.2359810
H           5.3626087     1.8023300    -0.9544996
15
254_C5H6N2O2_0-2-11-10 (135,) energy =    -454.0776613
N           1.3347713    -0.8658725    -0.3070147
H           1.4194503     0.0591398    -0.7042645
C           2.4327543    -1.4144285     0.2917230
O           2.4826815    -2.5402353     0.7622353
C           0.1212956    -1.6276345    -0.5443572
H          -0.7498684    -1.1024980    -0.1379234
H           0.2321080    -2.5862398    -0.0361265
H          -0.0380441    -1.8057782    -1.6149735
C           5.1619425     0.8059372     1.0530566
H           5.9193706     1.2025541     1.7139172
N           4.3483462    -0.2512117     1.4316350
C           3.5857537    -0.4607437     0.4041767
O           3.8072506     0.4044104    -0.6362059
C           4.8324891     1.2016983    -0.2027310
H           5.1918772     1.9476394    -0.8935437
15
254_C5H6N2O2_0-2-11-10 (150,) energy =    -454.0796347
N           1.3419977    -0.8681301    -0.3607386
H           1.4519548     0.0259434    -0.8177186
C           2.3988190    -1.3700357     0.3439708
O           2.4107307    -2.4526078     0.9093329
C           0.1287932    -1.6335686    -0.5831363
H          -0.7515801    -1.0675153    -0.2594190
H           0.2051241    -2.5473814     0.0073818
H           0.0107341    -1.8996082    -1.6408235
C           5.2333287     0.7433627     1.0108480
H           6.0662724     1.0664708     1.6187781
N           4.4386345    -0.3302634     1.3782588
C           3.5635028    -0.4315912     0.4262249
O           3.7011435     0.5184383    -0.5541067
C           4.7840234     1.2572188    -0.1629950
H           5.0853499     2.0601378    -0.8167647
15
254_C5H6N2O2_0-2-11-10 (165,) energy =    -454.0808212
N           1.3481244    -0.8844908    -0.3919623
H           1.4850652    -0.0302997    -0.9132913
C           2.3635531    -1.3280327     0.4067823
O           2.3423299    -2.3642819     1.0531231
C           0.1425148    -1.6627581    -0.6089880
H          -0.7495798    -1.0717456    -0.3734617
H           0.1861625    -2.5270444     0.0548573
H           0.0727560    -2.0120202    -1.6465403
C           5.2972137     0.6806566     0.9570339
H           6.1999948     0.9320184     1.4951747
N           4.5138135    -0.4026575     1.3172201
C           3.5363207    -0.3997576     0.4640778
O           3.6035372     0.6239020    -0.4475186
C           4.7421269     1.3036419    -0.1147639
H           4.9936158     2.1571311    -0.7240638
15
254_C5H6N2O2_0-2-11-10 (180,) energy =    -454.0811962
N           1.4606217    -1.2069829     0.0425366
H           1.9126115    -1.3152175     0.9391918
C           2.0623172    -0.4224517    -0.8997266
O           1.6361967    -0.2363252    -2.0293245
C           0.2388103    -1.9406109    -0.2304865
H           0.4100412    -3.0237785    -0.2073233
H          -0.0992417    -1.6558433    -1.2275888
H          -0.5387846    -1.6895066     0.4997917
C           5.1307742     1.3256594    -0.2114225
H           5.9453459     1.9789245    -0.4898174
N           4.1119670     1.0163369    -1.0960265
C           3.3278521     0.2244971    -0.4312301
O           3.7532328    -0.0231334     0.8499712
C           4.9109779     0.6932594     0.9705865
H           5.4192930     0.6385409     1.9201035
