15
254_C5H6N2O2_4-0-2-11 (-165,) energy =    -454.0859898
N           1.1751766    -0.7585618    -0.2387021
H           1.1390480     0.0777222     0.3317328
C           2.4205562    -1.1861598    -0.5932643
O           2.6764326    -2.2216001    -1.1925199
C           0.0243786    -1.6425671    -0.2782275
H          -0.2216262    -2.0292262     0.7194097
H           0.2707219    -2.4808373    -0.9314372
H          -0.8488104    -1.1181795    -0.6796425
C           4.6418398     1.3211665     0.7194908
H           4.8545759     2.2211475     1.2782628
N           3.3544269     0.8331186     0.5774209
C           3.4905004    -0.2445342    -0.1436682
O           4.7708001    -0.5140254    -0.4940613
C           5.4997947     0.4944780     0.0639206
H           6.5657346     0.4668869    -0.0962301
15
254_C5H6N2O2_4-0-2-11 (-150,) energy =    -454.0835495
N           1.1479060    -0.7277998    -0.4298011
H           1.1293338     0.1225252     0.1234039
C           2.4072433    -1.1920557    -0.7028719
O           2.6689973    -2.2547044    -1.2472670
C           0.0470169    -1.6597289    -0.2259043
H          -0.0153371    -1.9903909     0.8196871
H           0.2155268    -2.5298517    -0.8618847
H          -0.8995674    -1.1896753    -0.5078038
C           4.6216480     1.2399180     0.7526519
H           4.8290591     2.1212938     1.3422282
N           3.3321790     0.7837007     0.5431154
C           3.4770642    -0.2807119    -0.1963339
O           4.7660996    -0.5705334    -0.4967528
C           5.4899440     0.4082675     0.1167416
H           6.5613311     0.3596960     0.0049460
15
254_C5H6N2O2_4-0-2-11 (-135,) energy =    -454.0791825
N           1.0882993    -0.7076139    -0.5737423
H           1.0883430     0.1684900    -0.0588870
C           2.3635567    -1.1695769    -0.8151692
O           2.6360250    -2.2321938    -1.3512293
C           0.0638004    -1.6501935    -0.1261974
H           0.1425581    -1.8530728     0.9505441
H           0.1914726    -2.5849863    -0.6742727
H          -0.9301979    -1.2486389    -0.3420281
C           4.5481707     1.1819124     0.8059672
H           4.7430327     2.0407874     1.4318982
N           3.2630955     0.7544018     0.5248836
C           3.4241315    -0.2905831    -0.2393877
O           4.7215338    -0.5917281    -0.4921258
C           5.4311294     0.3550379     0.1833418
H           6.5057312     0.2908442     0.1201765
15
254_C5H6N2O2_4-0-2-11 (-120,) energy =    -454.0732924
N           1.0546522    -0.6915576    -0.7219522
H           1.0613592     0.2192291    -0.2679218
C           2.3522929    -1.1302546    -0.9450642
O           2.6444705    -2.1792174    -1.4933689
C           0.1359597    -1.6084550    -0.0356397
H           0.3654556    -1.6911944     1.0356654
H           0.2167768    -2.5951563    -0.4953053
H          -0.8905981    -1.2518055    -0.1550261
C           4.4820521     1.1495802     0.8409568
H           4.6551759     1.9837560     1.5054804
N           3.2077433     0.7410748     0.4932554
C           3.3936994    -0.2774030    -0.3014062
O           4.7001722    -0.5754663    -0.5136356
C           5.3860399     0.3400738     0.2247841
H           6.4621221     0.2713739     0.2039922
15
254_C5H6N2O2_4-0-2-11 (-105,) energy =    -454.0667210
N           1.0518683    -0.6832777    -0.8639792
H           1.0506473     0.2639460    -0.4879477
C           2.3762397    -1.0872305    -1.0706227
O           2.6959697    -2.1033098    -1.6588289
C           0.2546837    -1.5378904     0.0339475
H           0.6171007    -1.5030706     1.0709985
H           0.2964961    -2.5683594    -0.3254867
H          -0.7863241    -1.2054010     0.0078566
C           4.4234650     1.1111781     0.9020274
H           4.5661643     1.9177432     1.6066669
N           3.1672656     0.7213229     0.4779746
C           3.3889918    -0.2657871    -0.3474983
O           4.7051597    -0.5589599    -0.5087695
C           5.3550647     0.3237077     0.2974974
H           6.4309354     0.2531120     0.3257535
15
254_C5H6N2O2_4-0-2-11 (-90,) energy =    -454.0613999
N           1.0653843    -0.4651464    -0.8448494
H           0.5957913    -0.6272213    -1.7377925
C           2.3964053    -0.8739153    -1.0874342
O           2.7313334    -1.5522104    -2.0426930
C           0.3243684    -1.2396673     0.1736195
H          -0.6895766    -0.8377298     0.2451141
H           0.8063693    -1.1130617     1.1468373
H           0.2711926    -2.3111005    -0.0647594
C           4.5055329     0.9255430     1.1940934
H           4.6850401     1.6089951     2.0117449
N           3.2306424     0.6306706     0.7556575
C           3.4075478    -0.2039851    -0.2318243
O           4.7167258    -0.4962749    -0.4748348
C           5.4055932     0.2381091     0.4367541
H           6.4812991     0.1653808     0.4049834
15
254_C5H6N2O2_4-0-2-11 (-75,) energy =    -454.0676419
N           1.0793168    -0.5505798    -0.9357350
H           0.5800762    -0.8107108    -1.7865345
C           2.4177022    -0.8734061    -1.1828413
O           2.7936743    -1.4526807    -2.1889487
C           0.3931532    -1.1580602     0.2203546
H          -0.6273959    -0.7686026     0.2609478
H           0.9049309    -0.8653449     1.1392842
H           0.3546946    -2.2542357     0.1570959
C           4.4414940     0.8384744     1.2471607
H           4.5892095     1.4659328     2.1144890
N           3.1808563     0.5202638     0.7810094
C           3.3959356    -0.2297154    -0.2644894
O           4.7153225    -0.4449319    -0.5220427
C           5.3710009     0.2489316     0.4457109
H           6.4487364     0.2236478     0.4140981
15
254_C5H6N2O2_4-0-2-11 (-60,) energy =    -454.0726028
N           1.0590782    -0.6488556    -0.9864990
H           0.5501490    -0.9839945    -1.8024775
C           2.4041542    -0.8631334    -1.2496325
O           2.8067525    -1.3509978    -2.2953221
C           0.4194325    -1.0939264     0.2611003
H          -0.6084973    -0.7218060     0.2742627
H           0.9497497    -0.6664734     1.1122885
H           0.4003645    -2.1887566     0.3515523
C           4.3957503     0.7624207     1.2743266
H           4.5334862     1.3449280     2.1739757
N           3.1395511     0.4346092     0.8010490
C           3.3637085    -0.2523538    -0.2848326
O           4.6856930    -0.4137854    -0.5644129
C           5.3325633     0.2423773     0.4352582
H           6.4102780     0.2441708     0.3958065
15
254_C5H6N2O2_4-0-2-11 (-45,) energy =    -454.0757736
N           1.0536901    -0.7569968    -1.0184646
H           0.5434731    -1.1384027    -1.8104947
C           2.3996398    -0.8460133    -1.2991108
O           2.8215612    -1.2453756    -2.3761660
C           0.4304597    -1.0486300     0.2762251
H          -0.6085456    -0.7092768     0.2429639
H           0.9495258    -0.5017174     1.0619942
H           0.4416799    -2.1226282     0.5087962
C           4.3754382     0.6973607     1.2967408
H           4.5103848     1.2381023     2.2224656
N           3.1210014     0.3630812     0.8221343
C           3.3456662    -0.2664338    -0.2981399
O           4.6674297    -0.3805363    -0.6004222
C           5.3123345     0.2395790     0.4231499
H           6.3892936     0.2640762     0.3731298
15
254_C5H6N2O2_4-0-2-11 (-30,) energy =    -454.0773802
N           1.1512512    -0.8850302    -0.8972482
H           0.6952682    -1.3028261    -1.7016830
C           2.5005137    -0.8136537    -1.1275226
O           2.9956913    -1.1245781    -2.2040929
C           0.4517154    -1.0434343     0.3765477
H          -0.5948578    -0.7599670     0.2328247
H           0.8958535    -0.3888963     1.1240711
H           0.4860275    -2.0802131     0.7397448
C           4.2938846     0.6975681     1.6222078
H           4.3692634     1.1855911     2.5832940
N           3.0771080     0.3086863     1.0935068
C           3.3695922    -0.2321977    -0.0573565
O           4.7027392    -0.2339823    -0.3298544
C           5.2793135     0.3616668     0.7473671
H           6.3530378     0.4600260     0.7290515
15
254_C5H6N2O2_4-0-2-11 (-15,) energy =    -454.0779481
N           1.1609144    -0.9681024    -0.9237889
H           0.6834137    -1.3956060    -1.7077488
C           2.4957514    -0.8383336    -1.1863529
O           2.9780007    -1.1207590    -2.2774317
C           0.4462593    -0.9258291     0.3485403
H          -0.6201360    -1.0223048     0.1298201
H           0.6230871     0.0177569     0.8644853
H           0.7418616    -1.7406628     1.0210048
C           4.3049321     0.5130867     1.6316959
H           4.3959237     0.8823867     2.6431371
N           3.0961416     0.0847165     1.1140773
C           3.3685666    -0.2841148    -0.1076815
O           4.6793155    -0.1342228    -0.4396786
C           5.2637333     0.3738313     0.6776840
H           6.3222367     0.5721237     0.6216098
15
254_C5H6N2O2_4-0-2-11 (0,) energy =    -454.0782001
N           1.1598331    -1.0553867    -0.9440436
H           0.6383199    -1.4065096    -1.7365557
C           2.4691903    -0.8459810    -1.2647683
O           2.9141392    -1.0709629    -2.3849421
C           0.4447403    -0.8530485     0.3115468
H          -0.5932485    -1.1525004     0.1475772
H           0.4666435     0.1933546     0.6284524
H           0.8651911    -1.4566250     1.1203966
C           4.3422541     0.4155094     1.5506705
H           4.4561798     0.7444559     2.5736432
N           3.1254139    -0.0121561     1.0509346
C           3.3680890    -0.3233984    -0.1926050
O           4.6650048    -0.1326888    -0.5570902
C           5.2740546     0.3382735     0.5633370
H           6.3272117     0.5570319     0.4859903
15
254_C5H6N2O2_4-0-2-11 (15,) energy =    -454.0779490
N           1.1937613    -1.1040455    -0.8775242
H           0.6817545    -1.3785329    -1.7069160
C           2.4874873    -0.7951687    -1.1910379
O           2.9408443    -0.9480585    -2.3196688
C           0.4105935    -0.7712544     0.3088263
H          -0.5655034    -1.2514205     0.2039587
H           0.2612134     0.3097535     0.4205445
H           0.8960033    -1.1396095     1.2124704
C           4.3357972     0.3720090     1.6829678
H           4.4452517     0.6509934     2.7211504
N           3.1287047    -0.0617490     1.1657265
C           3.3736229    -0.3041392    -0.0927522
O           4.6628050    -0.0574562    -0.4511240
C           5.2645241     0.3718555     0.6897644
H           6.3107793     0.6236736     0.6197435
15
254_C5H6N2O2_4-0-2-11 (30,) energy =    -454.0773802
N           1.2156511    -1.1584602    -0.8106562
H           0.7297136    -1.4430272    -1.6547372
C           2.4948201    -0.7827764    -1.1288210
O           2.9468495    -0.9017243    -2.2612530
C           0.3643812    -0.6668256     0.2713031
H          -0.4517039    -1.3798766     0.4192078
H          -0.0685981     0.3167392     0.0408334
H           0.9423841    -0.5953060     1.1906907
C           4.4019148     0.2226773     1.7716703
H           4.5522887     0.3810084     2.8299031
N           3.2053448    -0.2508252     1.2664213
C           3.3894770    -0.3170813    -0.0236675
O           4.6294861     0.0852857    -0.4135086
C           5.2637439     0.4256642     0.7395417
H           6.2789359     0.7775905     0.6477692
15
254_C5H6N2O2_4-0-2-11 (45,) energy =    -454.0757736
N           1.3437580    -1.7092202     0.4799197
H           1.0102206    -2.6629019     0.5910391
C           2.6800824    -1.7637444     0.1489665
O           3.3039802    -2.8155783     0.1047751
C           0.3530436    -0.8068674    -0.1150013
H           0.1186285    -1.0763848    -1.1542785
H           0.7247326     0.2161803    -0.0804047
H          -0.5649529    -0.8646352     0.4763907
C           4.1106260     1.5442073    -0.0387013
H           4.0793600     2.6214855     0.0392250
N           2.9938861     0.7624725     0.1901853
C           3.4035638    -0.4633599     0.0133349
O           4.7185680    -0.5521960    -0.3247848
C           5.1574670     0.7341731    -0.3524985
H           6.1956553     0.8865201    -0.6012925
15
254_C5H6N2O2_4-0-2-11 (60,) energy =    -454.0726028
N           1.3585354    -1.6322471     0.5611678
H           1.0405464    -2.5862688     0.7220197
C           2.6680558    -1.7270292     0.1133324
O           3.2501481    -2.7938224    -0.0158355
C           0.3390117    -0.8421492    -0.1459780
H           0.1108822    -1.2511099    -1.1399127
H           0.6833770     0.1874441    -0.2450932
H          -0.5755183    -0.8426819     0.4531222
C           4.1469697     1.5568252     0.0218336
H           4.1324868     2.6301573     0.1459416
N           3.0292907     0.7788241     0.2563473
C           3.4194415    -0.4423054     0.0156635
O           4.7204933    -0.5321120    -0.3730102
C           5.1738371     0.7495463    -0.3601918
H           6.2060381     0.9012548    -0.6332747
15
254_C5H6N2O2_4-0-2-11 (75,) energy =    -454.0676419
N           1.3806149    -1.5405459     0.6223790
H           1.0939537    -2.4902877     0.8602548
C           2.6610566    -1.6704876     0.0745304
O           3.1917049    -2.7475590    -0.1434048
C           0.3142765    -0.9109451    -0.1794447
H           0.1091910    -1.4590589    -1.1092794
H           0.5998834     0.1153323    -0.4186383
H          -0.5977542    -0.8783984     0.4222083
C           4.2105533     1.5745216     0.0870761
H           4.2218984     2.6410620     0.2606993
N           3.0883685     0.8062762     0.3284535
C           3.4483005    -0.4088191     0.0189565
O           4.7318075    -0.5035295    -0.4249730
C           5.2085286     0.7682789    -0.3688664
H           6.2340350     0.9148902    -0.6688569
15
254_C5H6N2O2_4-0-2-11 (90,) energy =    -454.0613999
N           1.3572696    -1.4251268     0.6658185
H           1.1267361    -2.3633759     0.9984983
C           2.6149428    -1.5904521     0.0425317
O           3.0761383    -2.6737489    -0.2713895
C           0.2479330    -1.0000738    -0.2145025
H           0.0805363    -1.6938145    -1.0501599
H           0.4624781    -0.0047936    -0.6131175
H          -0.6640975    -0.9336622     0.3842791
C           4.3003624     1.5774550     0.1672220
H           4.3647789     2.6305865     0.4009916
N           3.1611212     0.8414767     0.4221482
C           3.4548166    -0.3666828     0.0257141
O           4.7116466    -0.4845142    -0.4889982
C           5.2418955     0.7615627    -0.3842060
H           6.2574792     0.8866612    -0.7253540
15
254_C5H6N2O2_4-0-2-11 (105,) energy =    -454.0667211
N           1.3125883    -1.5372027     0.4873035
H           1.3716642    -0.7863475     1.1738656
C           2.5546257    -1.6726548    -0.1442496
O           2.8430104    -2.5864166    -0.8942449
C           0.1694452    -1.2618142    -0.4012767
H          -0.7536447    -1.3152933     0.1818041
H           0.1306591    -2.0275572    -1.1790550
H           0.2392403    -0.2718055    -0.8735607
C           4.3384998     1.3867223     0.4668833
H           4.4215242     2.3886738     0.8626452
N           3.1956896     0.6266422     0.6284058
C           3.4597711    -0.4995437     0.0226716
O           4.7005972    -0.5471249    -0.5272066
C           5.2499207     0.6644141    -0.2409579
H           6.2499051     0.8413565    -0.6042794
15
254_C5H6N2O2_4-0-2-11 (120,) energy =    -454.0732924
N           1.2757293    -1.4157090     0.4235277
H           1.3150527    -0.6112674     1.0456585
C           2.4909228    -1.5853521    -0.2250272
O           2.7367101    -2.4830789    -1.0124319
C           0.0636908    -1.3747898    -0.4041197
H          -0.8162687    -1.4966958     0.2331265
H           0.0958718    -2.2029491    -1.1144154
H          -0.0215871    -0.4295923    -0.9577786
C           4.4169915     1.3600842     0.5086173
H           4.5442951     2.3442075     0.9360620
N           3.2332489     0.6558095     0.6285850
C           3.4499491    -0.4633489    -0.0069439
O           4.6945827    -0.5596111    -0.5383276
C           5.3017783     0.6129887    -0.2063361
H           6.3155785     0.7476085    -0.5486669
15
254_C5H6N2O2_4-0-2-11 (135,) energy =    -454.0791826
N           1.2652502    -1.2865664     0.3425485
H           1.2759189    -0.4448337     0.9118739
C           2.4603564    -1.4866274    -0.3132262
O           2.6817395    -2.3830999    -1.1120185
C           0.0130528    -1.4851868    -0.3857517
H          -0.8024871    -1.6655007     0.3201088
H           0.1223609    -2.3609737    -1.0272526
H          -0.2365195    -0.6147031    -1.0075493
C           4.4947704     1.3546604     0.5334990
H           4.6568054     2.3193841     0.9922750
N           3.2796775     0.6986771     0.6133722
C           3.4603578    -0.4095474    -0.0508598
O           4.7069024    -0.5441571    -0.5665179
C           5.3586502     0.5910227    -0.1887265
H           6.3832230     0.6903881    -0.5100698
15
254_C5H6N2O2_4-0-2-11 (150,) energy =    -454.0835490
N           1.2852749    -1.1560639     0.2597734
H           1.2664796    -0.2921315     0.7916185
C           2.4751423    -1.3890102    -0.3781612
O           2.6906190    -2.2963071    -1.1683896
C           0.0306718    -1.5798933    -0.3467235
H          -0.7114158    -1.7867906     0.4298560
H           0.2184825    -2.4940542    -0.9115529
H          -0.3684273    -0.8163969    -1.0280763
C           4.5915701     1.3505891     0.5968998
H           4.7781078     2.2959796     1.0856644
N           3.3492110     0.7419400     0.6239963
C           3.5066963    -0.3556642    -0.0625548
O           4.7609120    -0.5281075    -0.5451400
C           5.4457119     0.5708440    -0.1189452
H           6.4831253     0.6351258    -0.4058859
15
254_C5H6N2O2_4-0-2-11 (165,) energy =    -454.0859904
N           1.2491933    -0.9996542     0.1434401
H           1.2036636    -0.1328966     0.6656952
C           2.4521944    -1.2891780    -0.4296755
O           2.6796849    -2.2322513    -1.1750475
C           0.0183924    -1.6226337    -0.3085938
H          -0.6103520    -1.8949541     0.5453120
H           0.2851445    -2.5255943    -0.8595771
H          -0.5509987    -0.9569900    -0.9703917
C           4.6302329     1.3571044     0.6640633
H           4.8344721     2.2844700     1.1795589
N           3.3652101     0.7961301     0.6363218
C           3.5056513    -0.2935623    -0.0656233
O           4.7678890    -0.5036201    -0.5096657
C           5.4795555     0.5593832    -0.0370773
H           6.5284862     0.5878553    -0.2851769
15
254_C5H6N2O2_4-0-2-11 (180,) energy =    -454.0867059
N           1.2351517    -0.8731643    -0.0336542
H           1.1878074    -0.0192782     0.5075997
C           2.4582967    -1.2432836    -0.5009572
O           2.6980051    -2.2407199    -1.1684773
C           0.0370079    -1.6493092    -0.2847410
H          -0.4132649    -1.9960086     0.6529888
H           0.3244586    -2.5145986    -0.8838609
H          -0.7059473    -1.0614951    -0.8367133
C           4.6786091     1.3332643     0.6725913
H           4.8951167     2.2504303     1.2011819
N           3.3976461     0.8140146     0.5975955
C           3.5271875    -0.2759595    -0.1058274
O           4.7964355    -0.5254043    -0.5068656
C           5.5254726     0.5113243    -0.0029063
H           6.5832964     0.5047524    -0.2115515
