30
012_C11H17N2+_1-0-10-9 (-165,) energy =    -538.6647720
C           8.1451284     2.8751723     1.6039448
C           7.8945514     4.2419802     1.3908577
C           6.6660058     4.7006563     0.9322095
C           5.6504020     3.7835151     0.6694472
C           5.8848943     2.4326464     0.8987878
C           7.1057773     1.9394999     1.3930595
C           7.1627276     0.4522663     1.6959714
N          11.9996848     2.0428702     3.3387043
C          11.5431372     1.3009958     2.0914915
C          10.0158393     1.2327154     2.0804967
N           9.4736713     2.5802431     2.1060715
C           9.8211733     3.2226200     3.3738393
C          11.3318566     3.4032821     3.4761731
H           8.7041512     4.9533611     1.5307021
H           6.5137046     5.7629606     0.7675564
H           4.6845587     4.1144084     0.3008686
H           5.0841331     1.7201126     0.7198873
H           7.5379200     0.2400228     2.7021601
H           6.1541002     0.0347949     1.6458699
H           7.7685698    -0.1185581     0.9818591
H          11.7644636     1.4759530     4.1635731
H          13.0207133     2.1446278     3.3391827
H          11.9200004     1.8682188     1.2383536
H          12.0051380     0.3108230     2.1189437
H           9.7295215     0.7297765     1.1562426
H           9.6798288     0.6004519     2.9217022
H           9.3617678     4.2088174     3.4400397
H           9.4579751     2.6441344     4.2465416
H          11.6428711     3.8220245     4.4364771
H          11.7135669     4.0167269     2.6575172
30
012_C11H17N2+_1-0-10-9 (-150,) energy =    -538.6683466
C           8.1384085     2.8904405     1.5824965
C           7.9313348     4.2365597     1.2446498
C           6.7087479     4.6813257     0.7534601
C           5.6699720     3.7670888     0.5822467
C           5.8657808     2.4356167     0.9369810
C           7.0780212     1.9655929     1.4688979
C           7.1366424     0.5224251     1.9298314
N          11.9631973     2.0113569     3.3166505
C          11.5781028     1.4212446     1.9670566
C          10.0567651     1.2857714     1.9071781
N           9.4535588     2.5899431     2.1086320
C           9.7412443     3.1077963     3.4409824
C          11.2434549     3.3214579     3.6061095
H           8.7637450     4.9299467     1.3339256
H           6.5771395     5.7267209     0.4914907
H           4.7110131     4.0884118     0.1875787
H           5.0445644     1.7317420     0.8305627
H           7.5265041     0.4300941     2.9500046
H           6.1303500     0.0959977     1.9367012
H           7.7444546    -0.1186720     1.2800367
H          11.7229480     1.3338482     4.0519400
H          12.9789913     2.1460890     3.3686813
H          11.9462615     2.1157524     1.2096345
H          12.0905637     0.4598749     1.8785951
H           9.7996200     0.9086161     0.9146845
H           9.7394108     0.5239588     2.6418895
H           9.2474746     4.0719584     3.5770795
H           9.3727194     2.4414829     4.2464129
H          11.5189874     3.6253512     4.6190587
H          11.6224882     4.0444727     2.8810398
30
012_C11H17N2+_1-0-10-9 (-135,) energy =    -538.6703854
C           8.1442819     2.9216289     1.5702848
C           7.9755351     4.2273482     1.0913214
C           6.7542935     4.6503606     0.5739137
C           5.6879759     3.7530479     0.5234935
C           5.8506903     2.4586268     1.0123708
C           7.0630937     2.0160774     1.5625954
C           7.1354315     0.6171695     2.1374493
N          11.9453389     1.9824693     3.3041917
C          11.6247388     1.5563803     1.8772520
C          10.1124854     1.3763705     1.7529645
N           9.4532342     2.6182953     2.1111108
C           9.6836345     2.9864006     3.4998576
C          11.1741793     3.2240226     3.7325393
H           8.8282621     4.9006181     1.1089723
H           6.6426958     5.6644452     0.2024983
H           4.7301860     4.0601995     0.1145061
H           5.0093272     1.7708754     0.9908690
H           7.6191605     0.5975751     3.1209698
H           6.1289677     0.2109231     2.2679478
H           7.6766233    -0.0810694     1.4863664
H          11.7050842     1.2098216     3.9388552
H          12.9537583     2.1394234     3.4092416
H          11.9868807     2.3557137     1.2280285
H          12.1785555     0.6337754     1.6854749
H           9.8868737     1.1279662     0.7124880
H           9.8080551     0.5103631     2.3694036
H           9.1557703     3.9167230     3.7227241
H           9.3166565     2.2263664     4.2183298
H          11.4160128     3.4085978     4.7822355
H          11.5454998     4.0420681     3.1121165
30
012_C11H17N2+_1-0-10-9 (-120,) energy =    -538.6711619
C           8.1632973     3.0182700     1.5568840
C           8.0506926     4.2701842     0.9410795
C           6.8439013     4.6862787     0.3830039
C           5.7399641     3.8359472     0.4352081
C           5.8514164     2.5892877     1.0490433
C           7.0524277     2.1525002     1.6257169
C           7.1045489     0.7878875     2.2781711
N          11.9399168     1.9858792     3.2837477
C          11.6690439     1.7233837     1.8076878
C          10.1660676     1.5299052     1.6139800
N           9.4613171     2.6952081     2.1147997
C           9.6500916     2.9051953     3.5397166
C          11.1288819     3.1534046     3.8311037
H           8.9282367     4.9091257     0.9014862
H           6.7702483     5.6598802    -0.0917974
H           4.7917033     4.1417208     0.0033316
H           4.9840068     1.9357091     1.0926338
H           7.6500504     0.7953308     3.2281799
H           6.0943812     0.4269976     2.4898942
H           7.5791965     0.0395711     1.6299972
H          11.7012844     1.1397653     3.8173273
H          12.9411978     2.1500027     3.4354183
H          12.0306217     2.6012969     1.2689267
H          12.2504140     0.8418117     1.5257812
H           9.9747747     1.4202109     0.5431669
H           9.8631144     0.5816116     2.0981138
H           9.0906116     3.7897581     3.8543347
H           9.2964212     2.0595739     4.1625265
H          11.3457252     3.2241963     4.8999519
H          11.4904603     4.0443286     3.3139787
30
012_C11H17N2+_1-0-10-9 (-105,) energy =    -538.6710433
C           8.1811733     2.9937300     1.5465475
C           8.0980102     4.1748888     0.8007384
C           6.8958760     4.5692798     0.2167463
C           5.7632895     3.7744966     0.3874191
C           5.8441762     2.6005081     1.1353246
C           7.0422653     2.1824700     1.7312855
C           7.0526157     0.9113425     2.5530338
N          11.9685081     1.9438866     3.2420512
C          11.7458077     1.8640601     1.7372475
C          10.2593875     1.6321055     1.4724269
N           9.4831132     2.6838098     2.1058739
C           9.6278291     2.7006599     3.5504866
C          11.0839470     2.9870233     3.9128061
H           8.9938371     4.7781644     0.6857039
H           6.8460780     5.4868653    -0.3614418
H           4.8174564     4.0645734    -0.0603521
H           4.9563884     1.9866066     1.2631314
H           7.0715924     1.1204780     3.6306132
H           6.1496600     0.3254498     2.3612377
H           7.9081259     0.2656655     2.3275927
H          11.7629955     1.0244358     3.6542781
H          12.9560076     2.1360402     3.4431487
H          12.0778425     2.8200615     1.3278545
H          12.3756267     1.0539314     1.3609323
H          10.1000673     1.6633350     0.3914915
H           9.9901891     0.6125095     1.8111904
H           9.0122654     3.5013528     3.9689529
H           9.3146707     1.7584735     4.0408235
H          11.2739135     2.9271461     4.9874841
H          11.4065370     3.9558725     3.5267846
30
012_C11H17N2+_1-0-10-9 (-90,) energy =    -538.6709986
C           8.1805288     2.9760820     1.5659837
C           8.1505668     4.0820776     0.7079876
C           6.9654047     4.4742963     0.0901179
C           5.7947297     3.7591567     0.3414489
C           5.8257648     2.6548560     1.1913872
C           7.0096155     2.2301318     1.8112296
C           6.9837541     1.0026225     2.6958303
N          11.9924975     1.9618173     3.2144693
C          11.7817892     2.0062128     1.7064667
C          10.3124853     1.7159633     1.4046398
N           9.4672106     2.6411994     2.1367274
C           9.6107831     2.5394694     3.5749058
C          11.0459653     2.8879188     3.9677395
H           9.0696006     4.6376978     0.5435073
H           6.9558506     5.3348668    -0.5717676
H           4.8604727     4.0544358    -0.1266786
H           4.9126529     2.0934681     1.3716053
H           6.9891525     1.2582212     3.7634385
H           6.0757951     0.4211266     2.5148147
H           7.8357037     0.3384175     2.5106029
H          11.8380524     0.9987128     3.5406280
H          12.9664899     2.1905249     3.4414213
H          12.0603728     3.0132012     1.3897758
H          12.4595631     1.2716694     1.2640972
H          10.1550964     1.8498360     0.3316129
H          10.0991352     0.6522272     1.6327996
H           8.9430276     3.2553642     4.0613383
H           9.3658136     1.5385462     3.9795159
H          11.2403345     2.7481242     5.0342534
H          11.3067995     3.9043285     3.6667991
30
012_C11H17N2+_1-0-10-9 (-75,) energy =    -538.6701287
C           8.1789635     2.9197991     1.5683730
C           8.2070828     3.9596919     0.6295696
C           7.0414467     4.3854142    -0.0016148
C           5.8283322     3.7768400     0.3203970
C           5.8015695     2.7361841     1.2465566
C           6.9659961     2.2692313     1.8736566
C           6.8794312     1.0834506     2.8096727
N          12.0216173     2.0213275     3.1829313
C          11.8098764     2.1551473     1.6804615
C          10.3713486     1.7580809     1.3505608
N           9.4415964     2.5334442     2.1459300
C           9.5975817     2.3648876     3.5727167
C          10.9998036     2.8089770     3.9928770
H           9.1545769     4.4481749     0.4170902
H           7.0794424     5.1944296    -0.7247372
H           4.9076602     4.1032610    -0.1536773
H           4.8570154     2.2499302     1.4761879
H           6.9334762     1.3722646     3.8672704
H           5.9288272     0.5611148     2.6735227
H           7.6788800     0.3567171     2.6239690
H          11.9484343     1.0276862     3.4388351
H          12.9725070     2.3141955     3.4329260
H          12.0004478     3.2026874     1.4385419
H          12.5496489     1.5156960     1.1920847
H          10.1989652     1.9542981     0.2899169
H          10.2571067     0.6647341     1.4980491
H           8.8751411     2.9935384     4.0990567
H           9.4377671     1.3255378     3.9188021
H          11.2077078     2.6139865     5.0482475
H          11.1717444     3.8623436     3.7633794
30
012_C11H17N2+_1-0-10-9 (-60,) energy =    -538.6689769
C           8.1729853     2.8119912     1.5596883
C           8.2745126     3.8332207     0.6044931
C           7.1380997     4.3519871    -0.0104529
C           5.8817688     3.8624658     0.3465523
C           5.7811118     2.8429506     1.2911109
C           6.9117494     2.2803927     1.9002093
C           6.7480230     1.1174975     2.8529060
N          12.0313456     2.1755204     3.1304942
C          11.7848675     2.2867219     1.6310426
C          10.4087135     1.6919928     1.3213622
N           9.3831912     2.3005298     2.1344925
C           9.5851671     2.1895429     3.5577342
C          10.9249286     2.8163250     3.9592923
H           9.2543334     4.2365034     0.3596019
H           7.2339828     5.1426977    -0.7483979
H           4.9848803     4.2638747    -0.1152055
H           4.8019477     2.4463138     1.5466368
H           6.7988344     1.4197299     3.9073539
H           5.7744011     0.6415320     2.7091827
H           7.5164363     0.3527778     2.6921016
H          12.0952408     1.1795186     3.3806741
H          12.9377644     2.5912888     3.3709347
H          11.8282077     3.3517597     1.3936198
H          12.6003640     1.7575073     1.1309334
H          10.1907157     1.8581907     0.2643674
H          10.4586268     0.5945938     1.4691369
H           8.7963235     2.7263359     4.0883045
H           9.5624060     1.1424599     3.9154106
H          11.1746375     2.6482273     5.0104814
H          10.9519633     3.8843223     3.7335013
30
012_C11H17N2+_1-0-10-9 (-45,) energy =    -538.6693255
C           8.3954171     2.5577546     1.6955505
C           8.6748822     3.5846343     0.7825583
C           7.6485023     4.2323256     0.0969828
C           6.3250732     3.8714196     0.3438622
C           6.0450730     2.8539902     1.2550576
C           7.0596288     2.1702337     1.9373191
C           6.7123562     1.0408968     2.8781257
N          12.0515285     2.5885750     3.3779249
C          11.8516369     2.3519543     1.8856690
C          10.6384750     1.4258789     1.6917778
N           9.4528162     1.8732758     2.3876002
C           9.6575960     2.1064148     3.8020010
C          10.7925964     3.1055802     4.0648727
H           9.7035927     3.8817551     0.5943320
H           7.8835163     5.0190004    -0.6136926
H           5.5141482     4.3712033    -0.1771094
H           5.0128214     2.5614589     1.4287295
H           6.6808319     1.3650687     3.9276542
H           5.7239527     0.6357977     2.6447782
H           7.4419533     0.2274968     2.8102534
H          12.3263717     1.7015574     3.8205945
H          12.8305446     3.2383591     3.5295755
H          11.6985752     3.3381359     1.4437096
H          12.7789302     1.9179813     1.5016625
H          10.4319495     1.3448348     0.6222344
H          10.9175449     0.4172765     2.0427036
H           8.7454087     2.5016511     4.2522168
H           9.8891208     1.1598660     4.3194633
H          11.0289586     3.2182964     5.1264411
H          10.5797032     4.0830041     3.6255268
30
012_C11H17N2+_1-0-10-9 (-30,) energy =    -538.6692996
C           8.4164842     2.4994668     1.6845597
C           8.7198199     3.4533077     0.7017876
C           7.7095617     4.1507096     0.0406568
C           6.3778642     3.9111167     0.3706263
C           6.0730660     2.9527376     1.3358556
C           7.0663555     2.2187690     1.9960416
C           6.6684633     1.1337329     2.9697287
N          11.9894362     2.6362666     3.4097407
C          11.8228001     2.4475455     1.9079370
C          10.6877575     1.4382070     1.6568448
N           9.4501049     1.7471783     2.3448485
C           9.6403946     1.9358234     3.7735530
C          10.6816055     3.0164852     4.0919955
H           9.7517890     3.6587008     0.4324049
H           7.9680293     4.8800684    -0.7211758
H           5.5807424     4.4507520    -0.1312469
H           5.0325559     2.7401965     1.5673718
H           6.6228222     1.4906152     4.0083409
H           5.6717003     0.7539427     2.7288323
H           7.3694170     0.2934054     2.9387659
H          12.3326719     1.7582942     3.8212734
H          12.7089456     3.3426664     3.5984196
H          11.6020228     3.4380097     1.5069459
H          12.7829258     2.1006716     1.5164219
H          10.5091294     1.3775416     0.5809195
H          11.0369983     0.4434854     1.9786642
H           8.7008143     2.2243928     4.2452418
H           9.9539603     0.9867008     4.2374775
H          10.8890815     3.1082613     5.1614699
H          10.3915176     3.9884767     3.6856143
30
012_C11H17N2+_1-0-10-9 (-15,) energy =    -538.6682714
C           8.4329007     2.4439946     1.6379287
C           8.7370088     3.3151846     0.5798032
C           7.7425542     4.0650601    -0.0478009
C           6.4216638     3.9531290     0.3750028
C           6.1091046     3.0547837     1.3936279
C           7.0813429     2.2695874     2.0248320
C           6.6374756     1.2235968     3.0234646
N          11.9208523     2.6813970     3.3781656
C          11.7646417     2.5377329     1.8714413
C          10.7236882     1.4410985     1.5836392
N           9.4468574     1.6239945     2.2529970
C           9.6376546     1.7611964     3.6940781
C          10.5833830     2.9090372     4.0686330
H           9.7557009     3.4231932     0.2221770
H           8.0087347     4.7319818    -0.8623583
H           5.6377412     4.5343832    -0.1002009
H           5.0712612     2.9243713     1.6892831
H           6.6291205     1.5902618     4.0598432
H           5.6140565     0.9076094     2.8030477
H           7.2773260     0.3359414     2.9859516
H          12.3466026     1.8246264     3.7553511
H          12.5704744     3.4451551     3.5953428
H          11.4527720     3.5189247     1.5106444
H          12.7488765     2.2931599     1.4632596
H          10.5748723     1.3749735     0.5037400
H          11.1439567     0.4744327     1.9014892
H           8.6863465     1.9425621     4.1912756
H          10.0330499     0.8168834     4.0983160
H          10.7778697     2.9644666     5.1429401
H          10.2099015     3.8715394     3.7103606
30
012_C11H17N2+_1-0-10-9 (0,) energy =    -538.6692536
C           3.9061971     1.6855323    -0.2015420
C           3.2470091     1.4818396    -1.4225169
C           1.9694782     0.9239153    -1.4682468
C           1.3170474     0.5881582    -0.2868559
C           1.9402625     0.8560497     0.9303152
C           3.2139075     1.4311780     1.0083737
C           3.7377618     1.8293510     2.3718804
N           8.0019676     2.9932721    -0.4093606
C           6.9311529     3.7078766    -1.2165584
C           5.7443216     2.7755431    -1.4350017
N           5.1966443     2.3476024    -0.1508544
C           6.2271924     1.5459491     0.5298317
C           7.4361820     2.4060384     0.8729075
H           3.7357151     1.7047204    -2.3641736
H           1.4940660     0.7582569    -2.4302258
H           0.3232200     0.1520724    -0.3074842
H           1.4108424     0.6504854     1.8571783
H           4.3429292     2.7411567     2.3208577
H           2.9012034     2.0282450     3.0475451
H           4.3395726     1.0450711     2.8528115
H           8.3935939     2.2313291    -0.9773307
H           8.7793527     3.6304411    -0.2024255
H           6.6401651     4.5840484    -0.6337140
H           7.3878647     4.0216895    -2.1582293
H           4.9947696     3.3545470    -1.9805773
H           6.0419113     1.9297927    -2.0833930
H           5.8433219     1.1405031     1.4634180
H           6.5444963     0.6813323    -0.0843696
H           8.2342185     1.8330865     1.3509402
H           7.1557242     3.2529295     1.5027763
30
012_C11H17N2+_1-0-10-9 (15,) energy =    -538.6728176
C           3.9131963     1.6595341    -0.2084467
C           3.3100325     1.3270961    -1.4283855
C           2.0283528     0.7780567    -1.4644692
C           1.3346554     0.5634864    -0.2767439
C           1.9216754     0.9259720     0.9347078
C           3.1995555     1.4931755     1.0002336
C           3.7382129     1.9500152     2.3368716
N           7.9839921     2.9975132    -0.4246154
C           6.8867801     3.7760250    -1.1345436
C           5.7115716     2.8448766    -1.4151224
N           5.2191601     2.2829087    -0.1652176
C           6.2579003     1.4423439     0.4370098
C           7.4678484     2.2874132     0.8175296
H           3.8401422     1.4666367    -2.3648498
H           1.5818843     0.5201765    -2.4200246
H           0.3366140     0.1365984    -0.2912619
H           1.3651175     0.7946033     1.8591301
H           4.3623934     2.8438555     2.2313571
H           2.9149245     2.1936644     3.0142264
H           4.3361116     1.1780796     2.8421353
H           8.3638676     2.2956660    -1.0726683
H           8.7630000     3.6200856    -0.1826623
H           6.5981611     4.5854476    -0.4611912
H           7.3205951     4.1868694    -2.0494345
H           4.9250799     3.4426511    -1.8834640
H           6.0206885     2.0762368    -2.1499799
H           5.8832791     0.9745496     1.3475176
H           6.5699501     0.6220023    -0.2383504
H           8.2900471     1.6883408     1.2161332
H           7.1970343     3.0705967     1.5286037
30
012_C11H17N2+_1-0-10-9 (30,) energy =    -538.6742378
C           3.9142094     1.6542963    -0.2085486
C           3.3662678     1.1935415    -1.4117904
C           2.0821865     0.6505763    -1.4443251
C           1.3441412     0.5575171    -0.2662460
C           1.8901254     1.0214096     0.9301610
C           3.1710084     1.5836862     0.9885467
C           3.7052078     2.1114347     2.2991285
N           7.9725900     2.9990141    -0.4292408
C           6.8559887     3.8447137    -1.0250886
C           5.6785057     2.9366406    -1.3670950
N           5.2354294     2.2419897    -0.1690068
C           6.2794735     1.3572370     0.3402530
C           7.5002965     2.1709979     0.7573675
H           3.9390599     1.2485434    -2.3329975
H           1.6682046     0.2997683    -2.3847967
H           0.3434108     0.1365516    -0.2778805
H           1.3032434     0.9663920     1.8433528
H           4.2938130     3.0227468     2.1506649
H           2.8849133     2.3416624     2.9845405
H           4.3475624     1.3824394     2.8136234
H           8.3280115     2.3634689    -1.1551184
H           8.7616204     3.5947336    -0.1546513
H           6.5840732     4.5768795    -0.2623058
H           7.2658532     4.3507882    -1.9025776
H           4.8673027     3.5627604    -1.7479391
H           5.9782313     2.2554526    -2.1881685
H           5.9169587     0.8253416     1.2221083
H           6.5758345     0.5873541    -0.3992977
H           8.3384291     1.5434330     1.0697942
H           7.2510458     2.8827236     1.5469791
30
012_C11H17N2+_1-0-10-9 (45,) energy =    -538.6741883
C           3.8284079     1.6342462    -0.2178575
C           3.3728309     1.0398650    -1.4002727
C           2.1013012     0.4708730    -1.4609063
C           1.2896993     0.4847203    -0.3274027
C           1.7507414     1.0699462     0.8517412
C           3.0198962     1.6566557     0.9352603
C           3.4873742     2.2880906     2.2249964
N           7.8638740     3.0346691    -0.4148796
C           6.7251459     3.9381670    -0.8682620
C           5.5370991     3.0681795    -1.2687992
N           5.1488239     2.2270246    -0.1475924
C           6.2100572     1.3011274     0.2279932
C           7.4402366     2.0766367     0.6899017
H           4.0088563     1.0201890    -2.2816414
H           1.7530001     0.0175321    -2.3839859
H           0.2972285     0.0453871    -0.3604071
H           1.1091459     1.0841668     1.7288235
H           3.9798017     3.2491054     2.0458923
H           2.6453047     2.4535548     2.9024311
H           4.2055115     1.6500630     2.7588542
H           8.1904732     2.4861616    -1.2209348
H           8.6630217     3.5994069    -0.1063711
H           6.4818715     4.5758927    -0.0162148
H           7.1025320     4.5440333    -1.6956905
H           4.7061634     3.7269338    -1.5344237
H           5.8039113     2.4977472    -2.1808899
H           5.8738267     0.6778716     1.0604593
H           6.4887072     0.6136407    -0.5955398
H           8.2938158     1.4284953     0.9027108
H           7.2135765     2.6959273     1.5600588
30
012_C11H17N2+_1-0-10-9 (60,) energy =    -538.6739154
C           3.8650140     1.5727738    -0.1695976
C           3.4803711     0.8619005    -1.3117980
C           2.2086641     0.2964742    -1.3962541
C           1.3243608     0.4418751    -0.3277669
C           1.7138976     1.1479067     0.8105567
C           2.9853541     1.7268126     0.9174922
C           3.3834409     2.4833266     2.1629148
N           7.8891222     2.9833290    -0.4620686
C           6.7330762     3.9442100    -0.7032918
C           5.5011048     3.1407889    -1.1094290
N           5.1910926     2.1591713    -0.0786474
C           6.2668512     1.1897719     0.0871677
C           7.5382412     1.8977328     0.5458774
H           4.1745007     0.7485366    -2.1416136
H           1.9144658    -0.2520547    -2.2858729
H           0.3304147     0.0074750    -0.3791893
H           1.0169599     1.2571155     1.6371589
H           3.7423077     3.4914966     1.9292717
H           2.5345131     2.5766618     2.8454047
H           4.1891160     1.9759099     2.7082864
H           8.1399608     2.5377250    -1.3540839
H           8.7201634     3.4991974    -0.1522737
H           6.5710810     4.4696024     0.2399658
H           7.0518965     4.6484229    -1.4755767
H           4.6628437     3.8349692    -1.2128310
H           5.6729854     2.6918641    -2.1080882
H           5.9872874     0.4659665     0.8574419
H           6.4778351     0.6121139    -0.8349808
H           8.3968559     1.2250696     0.6112153
H           7.3862021     2.4057261     1.5002878
30
012_C11H17N2+_1-0-10-9 (75,) energy =    -538.6739520
C           3.9389102     1.5097080    -0.1093570
C           3.5838853     0.6938367    -1.1894216
C           2.3018418     0.1523867    -1.2736934
C           1.3723829     0.4384511    -0.2741358
C           1.7287074     1.2574619     0.7972761
C           3.0118787     1.8096689     0.9057288
C           3.3705582     2.6957674     2.0752641
N           7.9348205     2.9843276    -0.4677963
C           6.7616636     3.9534856    -0.5105433
C           5.5072343     3.1934375    -0.9312107
N           5.2725314     2.0788333    -0.0208998
C           6.3615065     1.1120628    -0.0627487
C           7.6536711     1.7721163     0.4093183
H           4.3098932     0.4767343    -1.9696562
H           2.0332150    -0.4830258    -2.1121220
H           0.3702874     0.0232785    -0.3259124
H           0.9984676     1.4722804     1.5728724
H           3.5186964     3.7388861     1.7669612
H           2.5736803     2.6884990     2.8236906
H           4.2970161     2.3715705     2.5605922
H           8.1311891     2.6611151    -1.4239224
H           8.7813401     3.4665268    -0.1458552
H           6.6608553     4.3552397     0.4996409
H           7.0257286     4.7524367    -1.2076322
H           4.6621814     3.8854612    -0.8830417
H           5.6025312     2.8759846    -1.9888407
H           6.1368112     0.2832155     0.6137906
H           6.5253698     0.6738287    -1.0673562
H           8.5189711     1.1091558     0.3332923
H           7.5576367     2.1484796     1.4296460
30
012_C11H17N2+_1-0-10-9 (90,) energy =    -538.6742272
C           3.9449585     1.4356744    -0.0817602
C           3.6055134     0.5139916    -1.0789364
C           2.3151015    -0.0098684    -1.1477704
C           1.3573242     0.4027829    -0.2227196
C           1.6971804     1.3272368     0.7648073
C           2.9887626     1.8601825     0.8617554
C           3.3265930     2.8517298     1.9495793
N           7.9224823     2.9734225    -0.4099483
C           6.7406581     3.9261594    -0.2952678
C           5.4789500     3.2099104    -0.7673767
N           5.2837798     1.9842263    -0.0012761
C           6.3765161     1.0464517    -0.2087328
C           7.6767455     1.6541810     0.3094589
H           4.3477272     0.1984295    -1.8075476
H           2.0623695    -0.7291407    -1.9208744
H           0.3486932     0.0028379    -0.2646540
H           0.9481791     1.6369584     1.4888323
H           3.3612496     3.8830914     1.5711625
H           2.5721312     2.8303996     2.7406197
H           4.3022436     2.6379944     2.3973756
H           8.0949873     2.7790703    -1.4047637
H           8.7734682     3.4200963    -0.0506805
H           6.6695109     4.1985687     0.7596254
H           6.9755686     4.8085042    -0.8954764
H           4.6321562     3.8815492    -0.6056222
H           5.5383301     3.0254196    -1.8585167
H           6.1810587     0.1293615     0.3532230
H           6.5167064     0.7548114    -1.2686762
H           8.5443167     1.0168578     0.1216524
H           7.6086936     1.8921908     1.3727336
30
012_C11H17N2+_1-0-10-9 (105,) energy =    -538.6741517
C           3.9623782     1.4071900    -0.1002360
C           3.6349865     0.3807963    -0.9948997
C           2.3432700    -0.1431049    -1.0317376
C           1.3682536     0.3668554    -0.1770099
C           1.6984268     1.3842789     0.7175402
C           2.9910293     1.9180989     0.7864496
C           3.3114600     2.9858911     1.8056883
N           7.9421877     2.9593652    -0.3737301
C           6.7675321     3.8934807    -0.1202495
C           5.4940897     3.2422976    -0.6501917
N           5.3068839     1.9322939    -0.0372073
C           6.3899310     1.0248030    -0.3733666
C           7.7035456     1.5639997     0.1858953
H           4.3834630    -0.0117125    -1.6771674
H           2.1041813    -0.9401945    -1.7291682
H           0.3584802    -0.0316076    -0.1963585
H           0.9415693     1.7641578     1.3989094
H           3.2387495     4.0003559     1.3881989
H           2.6078700     2.9429573     2.6417071
H           4.3238206     2.8636889     2.2051092
H           8.0933377     2.8863519    -1.3881761
H           8.8026861     3.3569492     0.0190804
H           6.7190961     4.0373057     0.9610219
H           6.9936955     4.8412957    -0.6146211
H           4.6558988     3.8941789    -0.3973755
H           5.5345325     3.1874246    -1.7562744
H           6.2039319     0.0490578     0.0830871
H           6.5061107     0.8584465    -1.4629955
H           8.5629733     0.9509952    -0.0965418
H           7.6594629     1.6712243     1.2714224
30
012_C11H17N2+_1-0-10-9 (120,) energy =    -538.6724903
C           3.9525066     1.4116554    -0.1396384
C           3.6439488     0.2841850    -0.9132891
C           2.3598000    -0.2584021    -0.9060426
C           1.3699603     0.3221607    -0.1175328
C           1.6859980     1.4223571     0.6778077
C           2.9711140     1.9772999     0.7065343
C           3.2658173     3.0986142     1.6770766
N           7.9443665     2.9600916    -0.3314495
C           6.7795056     3.8681815     0.0328106
C           5.5013227     3.2892978    -0.5638382
N           5.2997816     1.9205254    -0.1076634
C           6.3757524     1.0424889    -0.5235553
C           7.6962598     1.5164235     0.0785742
H           4.3951478    -0.1620878    -1.5576297
H           2.1402091    -1.1266992    -1.5198658
H           0.3649681    -0.0880011    -0.1037813
H           0.9238738     1.8505079     1.3238986
H           3.1496035     4.0965861     1.2310022
H           2.5736837     3.0581112     2.5227270
H           4.2838047     3.0242650     2.0761721
H           8.0853120     2.9959931    -1.3494996
H           8.8121917     3.3055617     0.0933032
H           6.7377430     3.8913009     1.1236889
H           7.0094642     4.8636856    -0.3545723
H           4.6707243     3.9201585    -0.2499140
H           5.5496325     3.3569264    -1.6694043
H           6.1897949     0.0324957    -0.1498464
H           6.4832830     0.9687905    -1.6241952
H           8.5488697     0.9288529    -0.2707940
H           7.6588978     1.5095574     1.1696773
30
012_C11H17N2+_1-0-10-9 (135,) energy =    -538.6685782
C           3.9315572     1.4263153    -0.1973428
C           3.6356188     0.2166174    -0.8456835
C           2.3667651    -0.3543837    -0.7711264
C           1.3702620     0.2697522    -0.0272087
C           1.6763291     1.4390953     0.6648631
C           2.9486437     2.0244264     0.6299136
C           3.2129119     3.1969239     1.5506121
N           7.9364402     2.9600499    -0.2437879
C           6.7689793     3.8326242     0.1900140
C           5.5098239     3.3388907    -0.5139534
N           5.2754065     1.9331602    -0.2327172
C           6.3567362     1.0818155    -0.6791435
C           7.6656355     1.4839100     0.0001956
H           4.3776099    -0.2637819    -1.4751096
H           2.1654324    -1.2801818    -1.3015294
H           0.3751825    -0.1588491     0.0375059
H           0.9170146     1.9007448     1.2909751
H           3.0827725     4.1752724     1.0667840
H           2.5098213     3.1757441     2.3877400
H           4.2228356     3.1588524     1.9759339
H           8.1028016     3.1069166    -1.2481185
H           8.7962064     3.2469913     0.2371892
H           6.6933312     3.7292660     1.2744546
H           7.0178562     4.8637547    -0.0726267
H           4.6739426     3.9470177    -0.1786651
H           5.6141051     3.5281084    -1.6021961
H           6.1589426     0.0484230    -0.3872285
H           6.4939973     1.0904284    -1.7784147
H           8.5222115     0.9282333    -0.3896408
H           7.6024999     1.3604906     1.0831959
30
012_C11H17N2+_1-0-10-9 (150,) energy =    -538.6633504
C           3.9632300     1.5029218    -0.2993856
C           3.6657917     0.2490967    -0.8635204
C           2.4477307    -0.3852135    -0.6384219
C           1.4913345     0.2210873     0.1703459
C           1.7956361     1.4414117     0.7649400
C           3.0235274     2.0953749     0.5820806
C           3.2668599     3.3384972     1.4144854
N           7.9271691     2.9968644    -0.0352359
C           6.7219159     3.8551859     0.3156890
C           5.5684000     3.4604522    -0.6068725
N           5.2657498     2.0486943    -0.5360740
C           6.3971830     1.2192091    -0.8855227
C           7.6027061     1.5120499     0.0145815
H           4.3608531    -0.2138461    -1.5564898
H           2.2509599    -1.3438629    -1.1088573
H           0.5324910    -0.2535498     0.3523034
H           1.0702133     1.9004765     1.4316482
H           3.1113780     4.2782486     0.8672310
H           2.5681159     3.3581948     2.2549157
H           4.2752017     3.3589270     1.8452369
H           8.2385679     3.2377080    -0.9856687
H           8.7127139     3.2101014     0.5892917
H           6.4965339     3.6551834     1.3649487
H           7.0188603     4.8995933     0.1889903
H           4.7003201     4.0630085    -0.3558261
H           5.8472689     3.7467293    -1.6408013
H           6.1574717     0.1655918    -0.7426075
H           6.6945083     1.3440068    -1.9433932
H           8.4995415     0.9741137    -0.3041306
H           7.3822939     1.2820756     1.0591515
30
012_C11H17N2+_1-0-10-9 (165,) energy =    -538.6590144
C           3.9407597     1.5094623    -0.3758074
C           3.6254168     0.2376876    -0.8950941
C           2.4804509    -0.4556485    -0.5221706
C           1.5968199     0.1127352     0.3901974
C           1.8956308     1.3671380     0.9067314
C           3.0536799     2.0894087     0.5685696
C           3.2249361     3.4201539     1.2801612
N           7.8163298     2.8359044     0.1048125
C           6.6179692     3.7266643     0.3903232
C           5.5579241     3.4800120    -0.6923606
N           5.1741853     2.0929225    -0.8339590
C           6.3278606     1.2534481    -1.1090529
C           7.4148893     1.3757462    -0.0324749
H           4.2475778    -0.1984729    -1.6693902
H           2.2793712    -1.4278558    -0.9620015
H           0.6937576    -0.4062829     0.6945997
H           1.2147018     1.8149937     1.6255362
H           3.0251594     4.2876687     0.6378874
H           2.5096847     3.4834208     2.1039643
H           4.2154574     3.5518769     1.7290541
H           8.2581833     3.1423226    -0.7720627
H           8.5252994     2.9450960     0.8383152
H           6.2683870     3.4528912     1.3870802
H           6.9740858     4.7604523     0.3941691
H           4.6962807     4.1092250    -0.4898214
H           5.9727400     3.8359409    -1.6525741
H           6.0501132     0.2029788    -1.1524627
H           6.7621169     1.5105729    -2.0895384
H           8.3181870     0.8133140    -0.2838237
H           7.0447767     1.0632733     0.9468061
30
012_C11H17N2+_1-0-10-9 (180,) energy =    -538.6602814
C           8.1317622     2.8783966     1.6257716
C           7.8214235     4.2471871     1.5129353
C           6.5780146     4.6995183     1.0902216
C           5.5897849     3.7756723     0.7642445
C           5.8823866     2.4226528     0.8770388
C           7.1241602     1.9289281     1.3185370
C           7.2197957     0.4139192     1.4212454
N          12.0106506     2.0522362     3.3705323
C          11.4702615     1.1840814     2.2471521
C           9.9422677     1.2177582     2.2620341
N           9.4779173     2.5875356     2.0955622
C           9.9028246     3.3497837     3.2762737
C          11.4219328     3.4530662     3.3299478
H           8.5953967     4.9883760     1.6840814
H           6.3955384     5.7666534     1.0076700
H           4.6091783     4.0988332     0.4298211
H           5.1107441     1.6977513     0.6330889
H           7.5834294     0.0634155     2.3912216
H           6.2232710    -0.0153550     1.2931749
H           7.8464373    -0.0327532     0.6383918
H          11.7682197     1.6185823     4.2705201
H          13.0354550     2.0905732     3.3334755
H          11.8615259     1.6028974     1.3179595
H          11.8628330     0.1754811     2.3986255
H           9.6221422     0.6003911     1.4255874
H           9.5747341     0.7420204     3.1899952
H           9.5121058     4.3643684     3.2552059
H           9.5288396     2.8913471     4.2128982
H          11.7724902     3.9798993     4.2208615
H          11.8196103     3.9297438     2.4316286
