17
240_C6H7N3O_0-2-8-9 (-165,) energy =    -472.3362575
N           1.1277802    -0.8809394     0.1195386
H           1.2382076    -0.1922666     0.8526028
C           2.2533027    -1.2211352    -0.5667806
C           5.5630217     1.1790513     0.4088549
H           6.4212369     1.7933220     0.6599619
C           4.4147937     1.1657786     1.1962353
H           4.3344652     1.7758760     2.0942590
N           3.3550739     0.4106001     0.8903446
C           3.4543323    -0.3485651    -0.2131833
N           4.4994366    -0.4015134    -1.0444381
C           5.5450200     0.3660379    -0.7241292
H           6.3964122     0.3279081    -1.4019603
O           2.3220205    -2.1054146    -1.4077980
C          -0.1151869    -1.6116514    -0.0219767
H          -0.3215474    -2.2366107     0.8568765
H          -0.0220731    -2.2567399    -0.8971241
H          -0.9539079    -0.9218320    -0.1668813
17
240_C6H7N3O_0-2-8-9 (-150,) energy =    -472.3348788
N           1.1536178    -0.7863381     0.0474595
H           1.2695512    -0.2114523     0.8721660
C           2.2897583    -1.0729323    -0.6490391
C           5.5482524     1.3254601     0.4755156
H           6.3953809     1.9384793     0.7645740
C           4.5287299     1.0131265     1.3706171
H           4.5425148     1.3786036     2.3960107
N           3.4814320     0.2591588     1.0190431
C           3.4724795    -0.2026631    -0.2417867
N           4.3813995     0.0549936    -1.1875756
C           5.4120415     0.8205193    -0.8174750
H           6.1511637     1.0384575    -1.5868410
O           2.3692880    -1.8936134    -1.5509625
C          -0.0646316    -1.5530849    -0.1301606
H          -0.9365210    -0.8972603    -0.0436785
H          -0.1550782    -2.3622233     0.6073333
H          -0.0395848    -1.9957942    -1.1272370
17
240_C6H7N3O_0-2-8-9 (-135,) energy =    -472.3326935
N           1.1447434    -0.7379442    -0.0138688
H           1.2123942    -0.0940387     0.7637473
C           2.3259082    -1.1384977    -0.5678303
C           5.5483642     1.3383219     0.4706058
H           6.3881636     1.9710984     0.7377655
C           4.6069310     0.9320134     1.4119107
H           4.6762417     1.2412030     2.4534926
N           3.5664379     0.1543202     1.0886377
C           3.4951658    -0.2400765    -0.1920366
N           4.3204658     0.1142572    -1.1830743
C           5.3413869     0.9045295    -0.8389868
H           6.0118336     1.2034511    -1.6432407
O           2.4510076    -2.0694536    -1.3491354
C          -0.0710660    -1.5146315    -0.1789336
H          -0.9372905    -0.8473359    -0.2178438
H          -0.2143439    -2.2378468     0.6352683
H           0.0079620    -2.0636653    -1.1185376
17
240_C6H7N3O_0-2-8-9 (-120,) energy =    -472.3301275
N           1.1331402    -0.7229039    -0.0833107
H           1.1372293     0.0253009     0.5971479
C           2.3490757    -1.1983241    -0.4809148
C           5.5496734     1.3401383     0.4598019
H           6.3871800     1.9859604     0.7018951
C           4.7062508     0.8327635     1.4437657
H           4.8538363     1.0719418     2.4956340
N           3.6672667     0.0383593     1.1541142
C           3.5032870    -0.2682262    -0.1407834
N           4.2274634     0.1859035    -1.1705002
C           5.2473588     0.9902385    -0.8564082
H           5.8365722     1.3699014    -1.6896842
O           2.5210424    -2.2280358    -1.1158391
C          -0.0787253    -1.5090102    -0.2416850
H          -0.9246164    -0.8506205    -0.4611655
H          -0.3083456    -2.0995619     0.6552098
H           0.0758262    -2.1934972    -1.0770073
17
240_C6H7N3O_0-2-8-9 (-105,) energy =    -472.3280163
N           1.0713658    -0.7483157    -0.1477765
H           1.0027088     0.1256429     0.3548645
C           2.3166860    -1.2452267    -0.3895206
C           5.5030890     1.3464848     0.4410345
H           6.3439460     1.9985535     0.6530732
C           4.7840919     0.7219505     1.4565641
H           5.0379872     0.8717831     2.5047029
N           3.7437055    -0.0838904     1.2066783
C           3.4467941    -0.2731469    -0.0859967
N           4.0454994     0.2935468    -1.1409637
C           5.0737230     1.1016620    -0.8629293
H           5.5637733     1.5695175    -1.7153307
O           2.5468301    -2.3525114    -0.8535811
C          -0.1273717    -1.5524483    -0.3153771
H          -0.9162434    -0.9616800    -0.7917294
H          -0.4983124    -1.9376954     0.6431169
H           0.1301496    -2.3971112    -0.9557030
17
240_C6H7N3O_0-2-8-9 (-90,) energy =    -472.3273091
N           1.0224729    -0.7416522    -0.1387646
H           0.9275141     0.2368711     0.0928107
C           2.2756931    -1.2545026    -0.2703157
C           5.5045522     1.3234094     0.4200073
H           6.3631928     1.9642095     0.5912538
C           4.9380938     0.5660593     1.4433268
H           5.3360973     0.5976538     2.4563528
N           3.8831133    -0.2328319     1.2452241
C           3.4003548    -0.2646902    -0.0035002
N           3.8458866     0.4312864    -1.0576633
C           4.9024286     1.2212847    -0.8322387
H           5.2714752     1.7892058    -1.6848281
O           2.5280233    -2.4128757    -0.5701243
C          -0.1756517    -1.5312901    -0.3650557
H          -0.7436607    -1.1554196    -1.2243859
H          -0.8218197    -1.5248389     0.5199825
H           0.1434146    -2.5540998    -0.5693202
17
240_C6H7N3O_0-2-8-9 (-75,) energy =    -472.3282791
N           1.0475682    -0.7345830    -0.1480973
H           0.9720179     0.2731069    -0.1655064
C           2.2985393    -1.2736975    -0.1584359
C           5.5298608     1.3327799     0.3972874
H           6.3905187     1.9803063     0.5282672
C           5.1082131     0.4592792     1.3994869
H           5.6271205     0.4046842     2.3552343
N           4.0584845    -0.3541759     1.2482679
C           3.4186268    -0.2707953     0.0751247
N           3.7196361     0.5372261    -0.9504965
C           4.7830250     1.3331019    -0.7774426
H           5.0367765     1.9880299    -1.6094251
O           2.5440845    -2.4631928    -0.2949436
C          -0.1371141    -1.5271210    -0.4317033
H          -0.4691298    -1.4097337    -1.4713681
H          -0.9532626    -1.2387754     0.2381213
H           0.1181319    -2.5741446    -0.2629652
17
240_C6H7N3O_0-2-8-9 (-60,) energy =    -472.3303679
N           1.0598721    -0.7231038    -0.1897034
H           1.0432875     0.2658769    -0.4012164
C           2.2897529    -1.2974517    -0.0497508
C           5.5215063     1.3351004     0.3706605
H           6.3799534     1.9920634     0.4634237
C           5.2174136     0.3807836     1.3420858
H           5.8304528     0.2718189     2.2354077
N           4.1755331    -0.4483456     1.2342012
C           3.4158871    -0.2934583     0.1432569
N           3.5994719     0.5942316    -0.8445869
C           4.6612594     1.4015695    -0.7210935
H           4.8196241     2.1188821    -1.5246763
O           2.4992101    -2.5004433    -0.0145262
C          -0.1208481    -1.5148938    -0.4917236
H          -0.3236989    -1.5585032    -1.5700094
H          -0.9932946    -1.0952907     0.0183085
H           0.0583366    -2.5286645    -0.1308278
17
240_C6H7N3O_0-2-8-9 (-45,) energy =    -472.3328302
N           1.0801308    -0.7137815    -0.2574881
H           1.1288072     0.2387406    -0.5953475
C           2.2707414    -1.3032492     0.0540301
C           5.5141408     1.3367214     0.3578329
H           6.3710985     1.9991222     0.4201946
C           5.3015511     0.3188527     1.2882555
H           5.9885616     0.1637591     2.1187564
N           4.2627904    -0.5176996     1.2153798
C           3.4114995    -0.3074452     0.2052266
N           3.5055442     0.6439602    -0.7362001
C           4.5642979     1.4590643    -0.6518721
H           4.6468346     2.2277835    -1.4183921
O           2.4283951    -2.4968562     0.2605401
C          -0.1066812    -1.4998524    -0.5434590
H          -0.2373823    -1.6740311    -1.6199546
H          -0.9953898    -0.9923311    -0.1557740
H           0.0063253    -2.4649911    -0.0473189
17
240_C6H7N3O_0-2-8-9 (-30,) energy =    -472.3349461
N           1.0901600    -0.7255542    -0.3365919
H           1.2017373     0.1869442    -0.7598980
C           2.2255313    -1.3028922     0.1495857
C           5.4997872     1.3166390     0.3546905
H           6.3586815     1.9781983     0.3947105
C           5.3555953     0.2431030     1.2337846
H           6.1021871     0.0398697     1.9999958
N           4.3127383    -0.5904472     1.1882588
C           3.3905208    -0.3264077     0.2569681
N           3.4186152     0.6814356    -0.6296075
C           4.4786676     1.4954412    -0.5742402
H           4.5043127     2.3096493    -1.2964437
O           2.3198115    -2.4640097     0.5180589
C          -0.1070833    -1.4991115    -0.6049101
H          -0.1906461    -1.7740515    -1.6650246
H          -0.9971711    -0.9306830    -0.3166292
H          -0.0522150    -2.4135770    -0.0121652
17
240_C6H7N3O_0-2-8-9 (-15,) energy =    -472.3362637
N           1.1244670    -0.7466584    -0.4216385
H           1.2721463     0.1365597    -0.8927520
C           2.1976264    -1.2712205     0.2313923
C           5.5022582     1.3230716     0.3423875
H           6.3624705     1.9836764     0.3654577
C           5.4157814     0.1979549     1.1619775
H           6.2134161    -0.0519364     1.8599381
N           4.3679550    -0.6305605     1.1405965
C           3.3865133    -0.3162879     0.2896577
N           3.3611240     0.7415493    -0.5376066
C           4.4223400     1.5537846    -0.5056038
H           4.4012212     2.4091010    -1.1787481
O           2.2283179    -2.3756882     0.7539443
C          -0.0893187    -1.5056841    -0.6450284
H          -0.1402019    -1.9065436    -1.6663385
H          -0.9686698    -0.8770190    -0.4701312
H          -0.0945736    -2.3413384     0.0567698
17
240_C6H7N3O_0-2-8-9 (0,) energy =    -472.3367167
N           1.4310134    -1.5644264    -0.0424428
H           2.2451294    -2.0767248     0.2711502
C           1.6040022    -0.2371449    -0.2866105
C           5.5408306     1.0662357     0.4077710
H           6.5552464     1.4069787     0.5859164
C           4.5385705     1.9323585    -0.0282286
H           4.7453992     2.9867474    -0.2051045
N           3.2845175     1.5296712    -0.2521925
C           3.0339709     0.2353068    -0.0344289
N           3.9191844    -0.6842880     0.3838009
C           5.1680071    -0.2611734     0.6020708
H           5.8833569    -1.0085721     0.9408533
O           0.7293830     0.5266703    -0.6687160
C           0.1556126    -2.2284607    -0.2136885
H           0.2263010    -3.0376772    -0.9506568
H          -0.5588409    -1.4836883    -0.5680593
H          -0.2045348    -2.6479582     0.7337782
17
240_C6H7N3O_0-2-8-9 (15,) energy =    -472.3362637
N           1.4452033    -1.5363355     0.0882423
H           2.2368612    -2.0466755     0.4579209
C           1.6949944    -0.2773226    -0.3653837
C           5.6057278     1.0319248     0.4441210
H           6.6169904     1.3720168     0.6405427
C           4.5965589     1.9108548     0.0514967
H           4.7925873     2.9755086    -0.0664053
N           3.3483298     1.5079891    -0.2023903
C           3.1084718     0.2023413    -0.0479762
N           3.9987593    -0.7292777     0.3308434
C           5.2434949    -0.3062570     0.5729525
H           5.9643610    -1.0631664     0.8772147
O           0.8849394     0.4326702    -0.9429410
C           0.1859282    -2.2093769    -0.1578073
H           0.2598774    -2.9281570    -0.9849944
H          -0.5523276    -1.4504281    -0.4220828
H          -0.1432522    -2.7409364     0.7411652
17
240_C6H7N3O_0-2-8-9 (30,) energy =    -472.3349461
N           1.4036401    -1.4954070     0.1620848
H           2.1699749    -1.9969031     0.5928092
C           1.7245199    -0.3166658    -0.4431928
C           5.5959162     1.0417342     0.4466402
H           6.6009983     1.3939922     0.6532463
C           4.5548645     1.9204168     0.1462979
H           4.7179803     2.9967227     0.1190689
N           3.3155197     1.5029473    -0.1260495
C           3.1165581     0.1818649    -0.0744786
N           4.0365140    -0.7521958     0.2149443
C           5.2734760    -0.3121481     0.4711959
H           6.0208697    -1.0696919     0.7007615
O           0.9799050     0.3247755    -1.1691107
C           0.1631645    -2.1901002    -0.1249674
H           0.3010834    -2.9904317    -0.8644710
H          -0.5406704    -1.4609598    -0.5294110
H          -0.2482234    -2.6240984     0.7920269
17
240_C6H7N3O_0-2-8-9 (45,) energy =    -472.3328302
N           1.3762985    -1.4427485     0.2166417
H           2.0912667    -1.9243136     0.7464833
C           1.7899166    -0.3648855    -0.5108202
C           5.6172157     1.0472028     0.4582884
H           6.6137587     1.4154906     0.6780755
C           4.5416952     1.9120979     0.2529862
H           4.6678959     2.9916963     0.3186350
N           3.3128953     1.4765061    -0.0376429
C           3.1607585     0.1487802    -0.0951821
N           4.1141427    -0.7754340     0.0976591
C           5.3409246    -0.3139141     0.3705523
H           6.1180244    -1.0614618     0.5208282
O           1.1275858     0.1954869    -1.3707616
C           0.1420495    -2.1419290    -0.0931739
H           0.3108272    -3.0081424    -0.7469725
H          -0.5164065    -1.4413522    -0.6089704
H          -0.3383140    -2.4821282     0.8294286
17
240_C6H7N3O_0-2-8-9 (60,) energy =    -472.3303679
N           1.3328589    -1.3992842     0.2529183
H           1.9786721    -1.8295698     0.9016672
C           1.8426410    -0.4361190    -0.5683635
C           5.6172542     1.0618150     0.4610997
H           6.6012894     1.4559890     0.6922670
C           4.4985920     1.8896016     0.3599840
H           4.5766833     2.9636181     0.5215528
N           3.2838579     1.4230939     0.0576582
C           3.1933916     0.0995207    -0.1189244
N           4.1902354    -0.7928753    -0.0325291
C           5.4012672    -0.2971704     0.2540299
H           6.2159161    -1.0166888     0.3172956
O           1.2710133     0.0233174    -1.5453292
C           0.1051461    -2.1059579    -0.0720146
H           0.2992077    -3.0488123    -0.6003292
H          -0.4876571    -1.4598905    -0.7210640
H          -0.4571734    -2.3189647     0.8421993
17
240_C6H7N3O_0-2-8-9 (75,) energy =    -472.3282791
N           1.3028775    -1.3710262     0.2707445
H           1.8505192    -1.6891769     1.0583478
C           1.9002115    -0.5216826    -0.6110080
C           5.6128917     1.0878929     0.4703129
H           6.5799076     1.5154782     0.7136827
C           4.4457876     1.8512077     0.4908125
H           4.4660739     2.9056361     0.7618628
N           3.2493984     1.3424673     0.1804342
C           3.2320650     0.0422762    -0.1386994
N           4.2803207    -0.7914571    -0.1767020
C           5.4688243    -0.2533565     0.1267394
H           6.3258367    -0.9240531     0.0919415
O           1.4215235    -0.1784827    -1.6819414
C           0.0655490    -2.0654807    -0.0435392
H           0.2475153    -3.0941548    -0.3806390
H          -0.4258951    -1.5164380    -0.8478505
H          -0.5879207    -2.0880485     0.8341702
17
240_C6H7N3O_0-2-8-9 (90,) energy =    -472.3273091
N           1.2771907    -1.3763679     0.2796216
H           1.7084007    -1.5046174     1.1839238
C           1.9330697    -0.6267041    -0.6470437
C           5.5811050     1.0934574     0.4845883
H           6.5289268     1.5529145     0.7448706
C           4.3698856     1.7599854     0.6587263
H           4.3334195     2.7672091     1.0707913
N           3.1942843     1.2080235     0.3366144
C           3.2491616    -0.0308838    -0.1688352
N           4.3462916    -0.7748329    -0.3611606
C           5.5084417    -0.1984412    -0.0319593
H           6.4051152    -0.7964426    -0.1869101
O           1.5334825    -0.4145540    -1.7831365
C           0.0122019    -2.0347370     0.0028703
H           0.1134456    -3.1257146     0.0462103
H          -0.2909594    -1.7452608    -1.0040872
H          -0.7576452    -1.7193716     0.7161363
17
240_C6H7N3O_0-2-8-9 (105,) energy =    -472.3280163
N           1.3120018    -1.3535903     0.2515989
H           1.6079838    -1.2290297     1.2097455
C           2.0091630    -0.6982152    -0.7182638
C           5.5865281     1.1029743     0.5138613
H           6.5141237     1.5810036     0.8109283
C           4.3452906     1.6415143     0.8418912
H           4.2616860     2.5627004     1.4162900
N           3.1938963     1.0594909     0.4816594
C           3.3062001    -0.0661503    -0.2361857
N           4.4388363    -0.6893396    -0.5844909
C           5.5730940    -0.0930119    -0.2031127
H           6.4987588    -0.5955117    -0.4792738
O           1.6796935    -0.6396640    -1.8940271
C           0.0179593    -1.9629599    -0.0049414
H          -0.0454025    -2.9387833     0.4869846
H          -0.0758341    -2.0937557    -1.0837765
H          -0.8080439    -1.3311199     0.3460859
17
240_C6H7N3O_0-2-8-9 (120,) energy =    -472.3301276
N           1.3501272    -1.2746714     0.2822370
H           1.5640521    -0.9376145     1.2114740
C           2.0916638    -0.7627339    -0.7427764
C           5.6103553     1.1459178     0.5015753
H           6.5215725     1.6469771     0.8109867
C           4.3584945     1.5581281     0.9486807
H           4.2489905     2.3980009     1.6328130
N           3.2284402     0.9430698     0.5756601
C           3.3689772    -0.0775454    -0.2823830
N           4.5178743    -0.5799034    -0.7499869
C           5.6315390     0.0406183    -0.3493641
H           6.5707955    -0.3672297    -0.7196648
O           1.8238639    -0.8903514    -1.9281050
C           0.0540030    -1.8890264     0.0492099
H          -0.0989746    -2.7148589     0.7504712
H           0.0467556    -2.2728219    -0.9719772
H          -0.7693501    -1.1705180     0.1575486
17
240_C6H7N3O_0-2-8-9 (135,) energy =    -472.3326933
N           1.3259415    -1.2099788     0.3029667
H           1.4918649    -0.7336429     1.1801347
C           2.1396840    -0.8587328    -0.7348126
C           5.6046727     1.1537327     0.5065060
H           6.5012127     1.6788366     0.8187638
C           4.3556111     1.4504014     1.0446886
H           4.2344974     2.2191603     1.8060423
N           3.2457515     0.8044852     0.6671612
C           3.3969875    -0.1290048    -0.2851646
N           4.5472882    -0.5172113    -0.8460018
C           5.6435977     0.1304652    -0.4406418
H           6.5842622    -0.1872830    -0.8877078
O           1.9459904    -1.1524652    -1.9048239
C           0.0349090    -1.8345469     0.0754023
H          -0.1897185    -2.5325288     0.8874879
H           0.0885818    -2.3793501    -0.8684571
H          -0.7757010    -1.0966462     0.0050030
17
240_C6H7N3O_0-2-8-9 (150,) energy =    -472.3348786
N           1.2829415    -1.1448740     0.2954810
H           1.4266448    -0.5866216     1.1272114
C           2.1800064    -0.9597229    -0.7139991
C           5.5953487     1.1611163     0.4991791
H           6.4780797     1.7127279     0.8049180
C           4.3609132     1.3527276     1.1137336
H           4.2374595     2.0624092     1.9300171
N           3.2698554     0.6743483     0.7419292
C           3.4197856    -0.1905638    -0.2742348
N           4.5584083    -0.4707236    -0.9161324
C           5.6379227     0.2094631    -0.5195748
H           6.5689079    -0.0207644    -1.0353136
O           2.0595904    -1.4018452    -1.8468445
C           0.0001483    -1.7827539     0.0693138
H          -0.2782739    -2.3841504     0.9402644
H           0.0968870    -2.4298330    -0.8040227
H          -0.7963264    -1.0518482    -0.1261326
17
240_C6H7N3O_0-2-8-9 (165,) energy =    -472.3362574
N           1.2474907    -1.0531862     0.2465972
H           1.3771617    -0.4381313     1.0395087
C           2.2360652    -1.0506042    -0.6895062
C           5.5991920     1.1845209     0.4768039
H           6.4681151     1.7630925     0.7719841
C           4.3830918     1.2945485     1.1458163
H           4.2599457     1.9655311     1.9941919
N           3.3100308     0.5832829     0.7859999
C           3.4572609    -0.2397729    -0.2651288
N           4.5779893    -0.4317392    -0.9673809
C           5.6403480     0.2835955    -0.5869648
H           6.5559216     0.1262760    -1.1550909
O           2.1957835    -1.6496287    -1.7541685
C          -0.0216949    -1.7174392     0.0301594
H          -0.2904582    -2.3282628     0.8990425
H           0.0862816    -2.3605819    -0.8447222
H          -0.8299485    -0.9984730    -0.1579180
17
240_C6H7N3O_0-2-8-9 (180,) energy =    -472.3367066
N           1.2156099    -0.9674220     0.1913822
H           1.3344498    -0.3199360     0.9596002
C           2.2814420    -1.1261704    -0.6391674
C           5.5997167     1.2044692     0.4730090
H           6.4583001     1.8038008     0.7567764
C           4.4131422     1.2321045     1.2010650
H           4.3028999     1.8586872     2.0844298
N           3.3534003     0.4949909     0.8550963
C           3.4859229    -0.2794272    -0.2343647
N           4.5745412    -0.3804607    -1.0026686
C           5.6226890     0.3643788    -0.6398641
H           6.5108903     0.2835354    -1.2646619
O           2.3076610    -1.8618660    -1.6151076
C          -0.0358652    -1.6695316    -0.0034251
H          -0.3174269    -2.2257844     0.8983732
H           0.1029177    -2.3693233    -0.8291430
H          -0.8491319    -0.9775781    -0.2566139
