21
310_C9H11F_0-4-13-11 (-165,) energy =    -449.4221822
C           1.8516354    -2.1672468    -0.4862027
H           2.2585358    -2.4510880    -1.4592206
H           0.7751206    -2.3710740    -0.5121919
H           2.2884914    -2.8244054     0.2733339
C           2.0606057    -0.6852799    -0.1541854
H           1.4729401    -0.4556936     0.7415656
H           1.5922117    -0.0842879    -0.9480784
C           5.8731598     1.2656659     0.6529155
H           6.8030688     1.7833231     0.8702940
C           4.6529619     1.8430577     0.9918162
H           4.5758368     2.8123817     1.4729082
C           3.4988419     1.1368561     0.6915779
F           2.3135075     1.7144496     1.0203522
C           3.4628186    -0.1260611     0.0828154
C           4.7127393    -0.6830247    -0.2762831
C           4.8727077    -2.0030448    -1.0051130
H           4.3746400    -1.9952885    -1.9809305
H           4.4705199    -2.8497048    -0.4413212
H           5.9333613    -2.2031533    -1.1839517
C           5.8896328     0.0229571     0.0261180
H           6.8431442    -0.4195786    -0.2499011
21
310_C9H11F_0-4-13-11 (-150,) energy =    -449.4235706
C           1.8723588    -2.1851577    -0.3260227
H           2.3231826    -2.6536429    -1.2025972
H           0.7971487    -2.3938956    -0.3636772
H           2.2709284    -2.6789564     0.5677553
C           2.0837581    -0.6644476    -0.2747959
H           1.3909426    -0.2502539     0.4623784
H           1.7611115    -0.2362656    -1.2367184
C           5.8827083     1.2217818     0.7273409
H           6.8136359     1.7177564     0.9869456
C           4.6631563     1.8010232     1.0634735
H           4.5896287     2.7508845     1.5824638
C           3.5036266     1.1272098     0.7087279
F           2.3238459     1.7163528     1.0373197
C           3.4674173    -0.1116654     0.0539190
C           4.7180993    -0.6624841    -0.3129953
C           4.8576956    -1.9404822    -1.1146820
H           4.2734002    -1.9066916    -2.0411490
H           4.5321467    -2.8244025    -0.5565805
H           5.9042869    -2.0960232    -1.3933576
C           5.8983192     0.0087901     0.0432198
H           6.8512608    -0.4312283    -0.2390284
21
310_C9H11F_0-4-13-11 (-135,) energy =    -449.4257863
C           1.8588401    -2.1683145    -0.1662634
H           2.4435608    -2.8049207    -0.8322138
H           0.8010110    -2.3888748    -0.3495193
H           2.0840111    -2.4617934     0.8657176
C           2.1134478    -0.6673726    -0.3875781
H           1.3458886    -0.1024001     0.1450933
H           1.9574573    -0.4433632    -1.4544982
C           5.8779089     1.1788104     0.7870474
H           6.8060979     1.6605879     1.0810462
C           4.6559163     1.7442872     1.1373362
H           4.5801713     2.6687155     1.7001041
C           3.4963145     1.0941794     0.7372957
F           2.3168029     1.6735288     1.0830189
C           3.4692410    -0.1125270     0.0268786
C           4.7225411    -0.6447487    -0.3571131
C           4.8476795    -1.8792536    -1.2243913
H           4.1522041    -1.8562258    -2.0709240
H           4.6499005    -2.8011530    -0.6652630
H           5.8609795    -1.9558695    -1.6305060
C           5.9011904     0.0015965     0.0417932
H           6.8561635    -0.4236837    -0.2562412
21
310_C9H11F_0-4-13-11 (-120,) energy =    -449.4283209
C           1.8395573    -2.1088045    -0.0087045
H           2.5534522    -2.8392634    -0.3971013
H           0.8410099    -2.4090415    -0.3465261
H           1.8564491    -2.1735333     1.0851405
C           2.1466184    -0.6762337    -0.4797558
H           1.3497947    -0.0118830    -0.1388721
H           2.1124630    -0.6541659    -1.5789617
C           5.8739243     1.1428944     0.8227103
H           6.7980903     1.6130570     1.1467881
C           4.6476417     1.6842873     1.1979365
H           4.5676395     2.5765526     1.8099035
C           3.4915531     1.0534629     0.7579088
F           2.3062463     1.6038097     1.1281976
C           3.4783454    -0.1079108    -0.0220376
C           4.7340502    -0.6219387    -0.4191171
C           4.8516533    -1.8259449    -1.3283754
H           4.0842919    -1.8285383    -2.1100784
H           4.7534702    -2.7685161    -0.7755863
H           5.8292580    -1.8401646    -1.8202799
C           5.9087683     0.0060187     0.0169142
H           6.8675146    -0.4004741    -0.2952859
21
310_C9H11F_0-4-13-11 (-105,) energy =    -449.4299638
C           1.7691341    -2.0624368     0.1359618
H           2.5257172    -2.8349157    -0.0327547
H           0.8158134    -2.4360524    -0.2550491
H           1.6621778    -1.9320810     1.2184534
C           2.1431077    -0.7302416    -0.5402602
H           1.3425842    -0.0065713    -0.3675321
H           2.1937005    -0.8854152    -1.6259265
C           5.8172593     1.0971631     0.8769755
H           6.7306545     1.5643235     1.2342574
C           4.5794790     1.5874768     1.2842355
H           4.4810322     2.4345344     1.9549774
C           3.4374192     0.9615382     0.8018324
F           2.2366933     1.4511781     1.2050834
C           3.4533198    -0.1379927    -0.0602139
C           4.7188922    -0.6099839    -0.4759866
C           4.8471762    -1.7641924    -1.4452892
H           4.2226793    -1.6217154    -2.3354203
H           4.5455876    -2.7172700    -0.9945226
H           5.8828239    -1.8739147    -1.7805296
C           5.8793597     0.0120111     0.0030376
H           6.8476729    -0.3587289    -0.3233704
21
310_C9H11F_0-4-13-11 (-90,) energy =    -449.4309546
C           1.7580950    -1.9612154     0.2690118
H           2.5125315    -2.7546460     0.3116059
H           0.8290451    -2.3970898    -0.1159755
H           1.5741686    -1.6199870     1.2933172
C           2.2194834    -0.7890653    -0.6175018
H           1.4340630    -0.0271601    -0.6338504
H           2.3384629    -1.1395335    -1.6487999
C           5.8406422     1.0927233     0.8486788
H           6.7419296     1.5683422     1.2250741
C           4.5907480     1.5385574     1.2721747
H           4.4721326     2.3563045     1.9752967
C           3.4656474     0.9007946     0.7670867
F           2.2485413     1.3332088     1.1863610
C           3.5114866    -0.1582585    -0.1415153
C           4.7864700    -0.5948871    -0.5612680
C           4.9323850    -1.7246536    -1.5567291
H           4.4828907    -1.4723441    -2.5257105
H           4.4467402    -2.6445405    -1.2103584
H           5.9877931    -1.9526538    -1.7328993
C           5.9315268     0.0369295    -0.0584596
H           6.9095562    -0.3051305    -0.3871765
21
310_C9H11F_0-4-13-11 (-75,) energy =    -449.4310015
C           1.6616790    -1.8538081     0.3796070
H           2.3681623    -2.6586231     0.6128570
H           0.7427722    -2.3097749    -0.0063883
H           1.4191010    -1.3362228     1.3125081
C           2.2541643    -0.8703029    -0.6470708
H           1.5102281    -0.0919416    -0.8546134
H           2.4321489    -1.3902966    -1.5928840
C           5.8260441     1.0726966     0.8607536
H           6.7134984     1.5629861     1.2508858
C           4.5650860     1.4511898     1.3174184
H           4.4240412     2.2293743     2.0601662
C           3.4601696     0.7966558     0.7919002
F           2.2294231     1.1633055     1.2355520
C           3.5331780    -0.2131064    -0.1698875
C           4.8183347    -0.5870194    -0.6162687
C           5.0001043    -1.6768215    -1.6504605
H           4.5431913    -1.4086284    -2.6114261
H           4.5462911    -2.6233377    -1.3331781
H           6.0625780    -1.8637644    -1.8324777
C           5.9450316     0.0642920    -0.0950070
H           6.9315000    -0.2280054    -0.4456546
21
310_C9H11F_0-4-13-11 (-60,) energy =    -449.4298287
C           1.5237401    -1.7261566     0.4740594
H           2.1633316    -2.5015470     0.9115570
H           0.6377527    -2.2171925     0.0556125
H           1.1986951    -1.0617196     1.2769866
C           2.2702273    -0.9478493    -0.6256641
H           1.5821682    -0.2003757    -1.0449472
H           2.5162709    -1.6263786    -1.4460832
C           5.8020488     1.0811279     0.8871406
H           6.6807334     1.5852652     1.2793796
C           4.5386135     1.3983426     1.3802159
H           4.3848978     2.1444858     2.1527428
C           3.4441419     0.7293939     0.8506518
F           2.2143667     1.0673030     1.3209123
C           3.5270013    -0.2420241    -0.1505799
C           4.8173642    -0.5514491    -0.6353873
C           5.0246080    -1.5940267    -1.7135827
H           4.5018724    -1.3343466    -2.6422857
H           4.6609120    -2.5819371    -1.4055417
H           6.0876421    -1.6945371    -1.9518287
C           5.9324785     0.1182404    -0.1123465
H           6.9199934    -0.1260396    -0.4951611
21
310_C9H11F_0-4-13-11 (-45,) energy =    -449.4277321
C           1.4002934    -1.6342724     0.4792615
H           1.9524408    -2.2672109     1.1838726
H           0.6257061    -2.2526586     0.0116568
H           0.9101483    -0.8448828     1.0488551
C           2.3350083    -1.0699855    -0.6059540
H           1.7458269    -0.4071063    -1.2580757
H           2.6613119    -1.8941027    -1.2450010
C           5.8315812     1.0675401     0.8712172
H           6.7051107     1.5923585     1.2474546
C           4.5764718     1.3217476     1.4156993
H           4.4220949     2.0411495     2.2130960
C           3.4845306     0.6306216     0.9067924
F           2.2690360     0.9335153     1.4334497
C           3.5629739    -0.3151301    -0.1199593
C           4.8479552    -0.5526157    -0.6635462
C           5.0579537    -1.5473717    -1.7858303
H           4.4510986    -1.3087951    -2.6674611
H           4.7979324    -2.5698474    -1.4839599
H           6.1060198    -1.5554224    -2.0994073
C           5.9573159     0.1420187    -0.1632443
H           6.9365506    -0.0521526    -0.5930367
21
310_C9H11F_0-4-13-11 (-30,) energy =    -449.4265367
C           1.3006839    -1.5848940     0.4835584
H           1.7183207    -2.0581885     1.3789754
H           0.6136964    -2.2997820     0.0165966
H           0.7225057    -0.7174260     0.8032679
C           2.4047476    -1.2164754    -0.5209726
H           1.9482936    -0.6716519    -1.3622736
H           2.7832478    -2.1467608    -0.9568799
C           5.8469611     1.0567889     0.8918137
H           6.7100047     1.6177125     1.2390041
C           4.6136994     1.2194770     1.5132175
H           4.4655797     1.8998088     2.3453584
C           3.5300740     0.4872925     1.0416645
F           2.3417854     0.7008112     1.6638165
C           3.6017402    -0.4211025    -0.0183521
C           4.8651943    -0.5600582    -0.6444347
C           5.0549598    -1.4932384    -1.8206728
H           4.3628849    -1.2669152    -2.6408093
H           4.8894054    -2.5427922    -1.5447483
H           6.0727867    -1.4145075    -2.2137993
C           5.9629383     0.1757001    -0.1823356
H           6.9237165     0.0527653    -0.6754375
21
310_C9H11F_0-4-13-11 (-15,) energy =    -449.4262964
C           1.2192813    -1.4720008     0.4123526
H           1.4819307    -1.8563903     1.4027323
H           0.5386314    -2.1907952    -0.0580292
H           0.6779594    -0.5344768     0.5521704
C           2.4578715    -1.3038215    -0.4787693
H           2.1362735    -0.9059483    -1.4537985
H           2.8490890    -2.3048993    -0.7012956
C           5.8446286     1.1000151     0.8537553
H           6.6970466     1.6930172     1.1727010
C           4.6326962     1.2013439     1.5266754
H           4.4919448     1.8628922     2.3751090
C           3.5594847     0.4300335     1.0923357
F           2.3981273     0.5797902     1.7803765
C           3.6241888    -0.4587483     0.0158450
C           4.8679960    -0.5384104    -0.6599686
C           5.0401541    -1.4548959    -1.8504919
H           4.3054892    -1.2467180    -2.6381762
H           4.9177491    -2.5109857    -1.5763661
H           6.0371721    -1.3407570    -2.2857471
C           5.9533223     0.2350980    -0.2346190
H           6.8971974     0.1563280    -0.7678152
21
310_C9H11F_0-4-13-11 (0,) energy =    -449.4262876
C           1.2265116    -1.3444207     0.3677718
H           1.3561849    -1.6425146     1.4112020
H           0.5308269    -2.0491944    -0.1018693
H           0.7614826    -0.3552833     0.3598229
C           2.5506389    -1.3661215    -0.4067146
H           2.3370677    -1.1279597    -1.4589249
H           2.9183769    -2.4025478    -0.4263270
C           5.9089215     1.1458448     0.7922499
H           6.7554921     1.7645322     1.0760586
C           4.7293144     1.1968011     1.5253071
H           4.6094094     1.8415352     2.3897475
C           3.6628370     0.3920825     1.1365307
F           2.5382730     0.4870748     1.8921164
C           3.7017504    -0.4761476     0.0423517
C           4.9155678    -0.5106499    -0.6901194
C           5.0603020    -1.4163797    -1.8917958
H           4.3312463    -1.1757937    -2.6763524
H           4.9040359    -2.4710688    -1.6316177
H           6.0593176    -1.3258913    -2.3278391
C           5.9942705     0.2938275    -0.3084510
H           6.9142646     0.2496475    -0.8855496
21
310_C9H11F_0-4-13-11 (15,) energy =    -449.4262964
C           1.1645085    -1.2450866     0.2628484
H           1.1482435    -1.4485272     1.3351719
H           0.4661708    -1.9348339    -0.2247742
H           0.7926826    -0.2271332     0.1108211
C           2.5601435    -1.4371789    -0.3469047
H           2.4607843    -1.3743079    -1.4381871
H           2.8868666    -2.4709655    -0.1547141
C           5.8536929     1.1961524     0.7677675
H           6.6832099     1.8454026     1.0330510
C           4.6964330     1.1919896     1.5375737
H           4.5790689     1.8196307     2.4148353
C           3.6528230     0.3476139     1.1725160
F           2.5527837     0.3777615     1.9684962
C           3.6888518    -0.5003376     0.0622779
C           4.8826598    -0.4848082    -0.7023612
C           5.0333334    -1.3784368    -1.9130107
H           4.3126504    -1.1256221    -2.7017777
H           4.8719822    -2.4350150    -1.6657718
H           6.0359291    -1.2852911    -2.3403797
C           5.9402853     0.3574268    -0.3428604
H           6.8452189     0.3526869    -0.9449135
21
310_C9H11F_0-4-13-11 (30,) energy =    -449.4265371
C           1.1610485    -1.1813085     0.1897489
H           1.0203784    -1.2530729     1.2686279
H           0.4569034    -1.8684433    -0.2930423
H           0.8970930    -0.1628877    -0.1159112
C           2.5925010    -1.5411465    -0.2407143
H           2.5932227    -1.6651926    -1.3284574
H           2.8411635    -2.5361535     0.1607474
C           5.8324652     1.1997833     0.7620580
H           6.6432239     1.8814159     1.0030404
C           4.7162880     1.1231456     1.5878129
H           4.6148670     1.7219190     2.4869441
C           3.6985443     0.2383958     1.2499459
F           2.6420523     0.1811653     2.1015807
C           3.7170882    -0.5786422     0.1159546
C           4.8699469    -0.4925711    -0.7032470
C           5.0118502    -1.3501305    -1.9421257
H           4.2523905    -1.1107928    -2.6978020
H           4.9106607    -2.4186156    -1.7165239
H           5.9921459    -1.1996530    -2.4037404
C           5.9041204     0.3906200    -0.3709340
H           6.7789154     0.4422316    -1.0139337
21
310_C9H11F_0-4-13-11 (45,) energy =    -449.4277321
C           1.1395052    -1.0940488     0.0799191
H           0.9071536    -0.8855936     1.1241304
H           0.4235373    -1.8366942    -0.2900946
H           0.9879142    -0.1707235    -0.4914311
C           2.5731471    -1.6254953    -0.0991264
H           2.6880980    -1.9720850    -1.1290243
H           2.6893974    -2.5225922     0.5281768
C           5.7445496     1.2168742     0.8175478
H           6.5296004     1.9338129     1.0405629
C           4.6675061     1.0685944     1.6860987
H           4.5738394     1.6433980     2.6015441
C           3.6847459     0.1409695     1.3656936
F           2.6691464    -0.0068212     2.2563408
C           3.7019185    -0.6560884     0.2171245
C           4.8099789    -0.4936499    -0.6482603
C           4.9446613    -1.3073291    -1.9182776
H           4.1310841    -1.1039128    -2.6260198
H           4.9356269    -2.3858106    -1.7201126
H           5.8854084    -1.0731765    -2.4252338
C           5.8114863     0.4346661    -0.3340528
H           6.6557560     0.5457435    -1.0094766
21
310_C9H11F_0-4-13-11 (60,) energy =    -449.4298287
C           1.2159263    -1.0326974    -0.0776674
H           0.9636559    -0.5327497     0.8594741
H           0.4531254    -1.7942379    -0.2761079
H           1.1683349    -0.2906125    -0.8831229
C           2.6105349    -1.6824636    -0.0049685
H           2.8012452    -2.2348739    -0.9282783
H           2.5996290    -2.4303185     0.8003416
C           5.7471835     1.2132351     0.8046564
H           6.5209438     1.9475420     1.0100352
C           4.7174075     1.0114921     1.7205591
H           4.6503869     1.5623536     2.6528767
C           3.7501420     0.0637584     1.4172581
F           2.7656937    -0.1429601     2.3314826
C           3.7439928    -0.7061820     0.2510087
C           4.7952819    -0.4847020    -0.6663558
C           4.8825654    -1.2569911    -1.9657293
H           4.0000874    -1.0993191    -2.5977907
H           4.9679131    -2.3374185    -1.7967057
H           5.7590929    -0.9440200    -2.5407549
C           5.7816249     0.4672782    -0.3724178
H           6.5872431     0.6269858    -1.0843728
21
310_C9H11F_0-4-13-11 (75,) energy =    -449.4310010
C           1.2810252    -1.0377091    -0.2475111
H           0.9679248    -0.3724444     0.5627389
H           0.4973126    -1.7898634    -0.3935044
H           1.3553261    -0.4422115    -1.1646460
C           2.6241543    -1.7106799     0.0917299
H           2.8900541    -2.4181130    -0.6992279
H           2.4976043    -2.3001275     1.0075510
C           5.7507009     1.2064603     0.8134588
H           6.5248380     1.9444785     1.0037802
C           4.7634332     0.9721727     1.7685709
H           4.7304605     1.5029846     2.7142331
C           3.7941827     0.0214341     1.4819302
F           2.8300368    -0.2089251     2.4110793
C           3.7503226    -0.7185200     0.2985038
C           4.7544205    -0.4637854    -0.6593915
C           4.7860233    -1.2097033    -1.9757919
H           3.8510819    -1.0925511    -2.5367038
H           4.9402755    -2.2865325    -1.8314254
H           5.5997705    -0.8430435    -2.6084953
C           5.7408775     0.4938451    -0.3851275
H           6.5124228     0.6825537    -1.1271459
21
310_C9H11F_0-4-13-11 (90,) energy =    -449.4309540
C           1.3483889    -1.0806995    -0.4110053
H           0.9625131    -0.2952697     0.2474464
H           0.5651536    -1.8377707    -0.5322746
H           1.5393440    -0.6307333    -1.3916254
C           2.6242009    -1.7064300     0.1833310
H           2.9601224    -2.5251504    -0.4626820
H           2.3822705    -2.1517495     1.1534025
C           5.7766876     1.2024646     0.8222141
H           6.5602331     1.9359272     0.9903627
C           4.8437112     0.9399342     1.8227199
H           4.8632406     1.4442850     2.7831289
C           3.8585016    -0.0036513     1.5643257
F           2.9467691    -0.2535908     2.5392275
C           3.7474858    -0.7064749     0.3630512
C           4.7037891    -0.4299440    -0.6374828
C           4.6723049    -1.1581037    -1.9631545
H           3.7129369    -1.0339586    -2.4790588
H           4.8292129    -2.2371006    -1.8373381
H           5.4573810    -0.7867484    -2.6284506
C           5.7029801     0.5213988    -0.3928806
H           6.4355170     0.7279246    -1.1689545
21
310_C9H11F_0-4-13-11 (105,) energy =    -449.4299638
C           1.6508553    -1.4767546    -1.1463561
H           1.4241856    -0.5839140    -1.7393813
H           0.7312083    -2.0665915    -1.0589562
H           2.3782499    -2.0722090    -1.7066532
C           2.1750765    -1.0874068     0.2484518
H           2.3450271    -2.0019633     0.8315618
H           1.4009056    -0.5235347     0.7748270
C           5.7511020     1.3741378     0.2604729
H           6.6401966     1.9983170     0.2698958
C           4.5028371     1.9373061     0.5115148
H           4.3727172     2.9934334     0.7230726
C           3.3930238     1.1026008     0.4915509
F           2.1819124     1.6642526     0.7402613
C           3.4500154    -0.2677568     0.2246797
C           4.7278701    -0.8237791    -0.0103913
C           4.9059758    -2.3047243    -0.2619418
H           4.5011259    -2.6099143    -1.2342900
H           4.3998862    -2.9121289     0.4980318
H           5.9663515    -2.5738894    -0.2498775
C           5.8561119     0.0067639     0.0066169
H           6.8342696    -0.4312091    -0.1750662
21
310_C9H11F_0-4-13-11 (120,) energy =    -449.4283209
C           1.7274230    -1.6343399    -1.0905329
H           1.6055855    -0.8581444    -1.8545014
H           0.7634518    -2.1425302    -0.9727881
H           2.4431930    -2.3672089    -1.4708486
C           2.1673933    -1.0215959     0.2508835
H           2.2701298    -1.8309812     0.9886137
H           1.3718473    -0.3724715     0.6226885
C           5.7989337     1.3673638     0.3077526
H           6.7002557     1.9731796     0.3354650
C           4.5668753     1.9364311     0.6173591
H           4.4605346     2.9797170     0.8953671
C           3.4413225     1.1244546     0.5733632
F           2.2509758     1.6981054     0.8879275
C           3.4614221    -0.2277403     0.2149911
C           4.7268060    -0.7933797    -0.0635143
C           4.8901019    -2.2630524    -0.3853715
H           4.6726637    -2.4788577    -1.4388364
H           4.2265599    -2.8930057     0.2169633
H           5.9188787    -2.5845805    -0.1953324
C           5.8711555     0.0147635    -0.0213046
H           6.8376425    -0.4331276    -0.2385475
21
310_C9H11F_0-4-13-11 (135,) energy =    -449.4257863
C           1.7697195    -1.7686185    -1.0398235
H           1.8540870    -1.1751016    -1.9576683
H           0.7306174    -2.1078353    -0.9596374
H           2.3933922    -2.6565513    -1.1549156
C           2.1313172    -0.9328983     0.2001065
H           2.1152678    -1.5945765     1.0803126
H           1.3385395    -0.2015517     0.3695680
C           5.8265196     1.3637763     0.3728931
H           6.7385446     1.9509054     0.4326193
C           4.6047450     1.9344377     0.7154752
H           4.5141050     2.9616596     1.0525405
C           3.4665267     1.1446408     0.6259763
F           2.2882036     1.7232938     0.9768681
C           3.4571492    -0.1847312     0.1852665
C           4.7157949    -0.7571345    -0.1141304
C           4.8742396    -2.2145720    -0.4917555
H           4.5615464    -2.4124053    -1.5236154
H           4.2857611    -2.8715778     0.1585259
H           5.9226024    -2.5164211    -0.4057604
C           5.8728652     0.0303142    -0.0290004
H           6.8314654    -0.4229317    -0.2684180
21
310_C9H11F_0-4-13-11 (150,) energy =    -449.4235706
C           1.7980628    -1.9246575    -0.9393002
H           2.0532259    -1.5617006    -1.9416430
H           0.7266461    -2.1551688    -0.9372220
H           2.3304578    -2.8625431    -0.7719250
C           2.0825120    -0.8650775     0.1360124
H           1.9077221    -1.3172452     1.1248020
H           1.3251199    -0.0816861     0.0486272
C           5.8207281     1.3575293     0.4174282
H           6.7369191     1.9349675     0.5021213
C           4.6016314     1.9210431     0.7808628
H           4.5144098     2.9340302     1.1593354
C           3.4614280     1.1411403     0.6539398
F           2.2830332     1.7075834     1.0247073
C           3.4412785    -0.1713626     0.1621475
C           4.6966177    -0.7373318    -0.1633606
C           4.8673084    -2.1749700    -0.6100098
H           4.4298371    -2.3632582    -1.5959498
H           4.4043207    -2.8779739     0.0915314
H           5.9307598    -2.4253203    -0.6701810
C           5.8568942     0.0432677    -0.0419130
H           6.8126964    -0.4033712    -0.3033103
21
310_C9H11F_0-4-13-11 (165,) energy =    -449.4221822
C           1.7983369    -2.0334771    -0.8186869
H           2.1000898    -1.8773655    -1.8599218
H           0.7242760    -2.2514080    -0.8206517
H           2.3086806    -2.9235887    -0.4443232
C           2.0432081    -0.7902110     0.0441289
H           1.7115094    -1.0110631     1.0698236
H           1.3606195    -0.0043539    -0.2978281
C           5.8230520     1.3305582     0.5004891
H           6.7446442     1.8908792     0.6295706
C           4.6026872     1.8946367     0.8605517
H           4.5178262     2.8921016     1.2787011
C           3.4593071     1.1342116     0.6727029
F           2.2747903     1.6929672     1.0352444
C           3.4324332    -0.1599339     0.1329782
C           4.6858769    -0.7237792    -0.2023076
C           4.8651664    -2.1338546    -0.7303067
H           4.3502101    -2.2988678    -1.6811155
H           4.4951495    -2.8857671    -0.0245667
H           5.9275907    -2.3376216    -0.8938434
C           5.8515390     0.0394546    -0.0188524
H           6.8070534    -0.4039382    -0.2864399
21
310_C9H11F_0-4-13-11 (180,) energy =    -449.4216559
C           1.8268509    -2.1093741    -0.6586054
H           2.1751871    -2.1785074    -1.6929647
H           0.7503079    -2.3145246    -0.6645457
H           2.3050245    -2.9058509    -0.0816311
C           2.0531900    -0.7216477    -0.0505234
H           1.5877425    -0.7065772     0.9442450
H           1.4670292     0.0033995    -0.6311348
C           5.8597916     1.3042282     0.5763047
H           6.7862949     1.8439270     0.7501972
C           4.6390799     1.8755029     0.9245020
H           4.5578718     2.8595642     1.3739637
C           3.4908556     1.1402113     0.6789918
F           2.3030903     1.7041917     1.0219237
C           3.4583682    -0.1391922     0.1049633
C           4.7093211    -0.7012154    -0.2415290
C           4.8841218    -2.0701236    -0.8710129
H           4.3732515    -2.1556301    -1.8349239
H           4.5091108    -2.8751534    -0.2312850
H           5.9462275    -2.2639595    -1.0478613
C           5.8810968     0.0361774     0.0033526
H           6.8357446    -0.4070270    -0.2675551
