21
095_C9H9N3_8-0-17-18 (-165,) energy =    -512.6139771
C           2.2038277    -0.9277519    -0.2945176
H           2.2206345    -1.9503958     0.0950913
H           1.4834813    -0.3485394     0.2953792
C           6.1405630     0.5828778     0.2631223
H           7.1611372     0.9100935     0.4369748
C           5.7493076    -0.7146782     0.5903651
H           6.4619674    -1.4140845     1.0238242
N           4.5102508    -1.1870709     0.4003062
C           3.5993671    -0.3586372    -0.1291173
C           3.8943388     0.9635353    -0.4874744
H           3.1237488     1.5971049    -0.9169851
C           5.1876549     1.4392593    -0.2898452
H           5.4466862     2.4596197    -0.5588861
C           1.5969132    -1.2391570    -3.8517973
H           1.8048314    -1.3488823    -4.9078673
C           2.4941170    -1.0397524    -2.8330988
H           3.5700452    -0.9661071    -2.8138795
N           1.7327014    -0.9256479    -1.6823151
C           0.4304919    -1.1040340    -2.0701646
H          -0.3828583    -1.0794233    -1.3556303
N           0.3078155    -1.2767374    -3.3680800
21
095_C9H9N3_8-0-17-18 (-150,) energy =    -512.6155434
C           2.2909531    -1.1008742    -0.3287712
H           2.3938155    -2.1540966    -0.0479202
H           1.5549949    -0.6457626     0.3449669
C           6.1094328     0.6583561     0.3229324
H           7.1005955     1.0510425     0.5284976
C           5.7620776    -0.6300915     0.7266684
H           6.4801417    -1.2567307     1.2527828
N           4.5621360    -1.1807512     0.5009089
C           3.6468390    -0.4437014    -0.1434413
C           3.8980550     0.8612218    -0.5865421
H           3.1265801     1.4178130    -1.1099369
C           5.1520963     1.4180991    -0.3503244
H           5.3777207     2.4273250    -0.6839187
C           1.4962945    -1.1719391    -3.8560260
H           1.6434978    -1.2701278    -4.9234139
C           2.4510485    -1.1617777    -2.8707381
H           3.5259559    -1.2548284    -2.8941220
N           1.7604840    -0.9805159    -1.6845607
C           0.4332885    -0.9283927    -2.0216695
H          -0.3375962    -0.8061445    -1.2710022
N           0.2366057    -1.0231507    -3.3181986
21
095_C9H9N3_8-0-17-18 (-135,) energy =    -512.6166368
C           2.3683721    -1.2257421    -0.3603009
H           2.5394736    -2.2864074    -0.1498607
H           1.6247713    -0.8654124     0.3606334
C           6.0706939     0.7436788     0.3607200
H           7.0328341     1.1917279     0.5895966
C           5.7590222    -0.5350135     0.8214878
H           6.4763333    -1.0984776     1.4158206
N           4.5968340    -1.1510863     0.5710594
C           3.6844067    -0.4930952    -0.1576848
C           3.9005065     0.7941750    -0.6639368
H           3.1337562     1.2844643    -1.2555347
C           5.1166193     1.4196984    -0.4000657
H           5.3154866     2.4176785    -0.7812485
C           1.4340442    -1.1330684    -3.8516404
H           1.5289567    -1.2270032    -4.9253193
C           2.4102499    -1.2968356    -2.9013030
H           3.4582523    -1.5485922    -2.9637666
N           1.7922448    -1.0519407    -1.6875882
C           0.4806935    -0.7796787    -1.9751351
H          -0.2368014    -0.5619917    -1.1937815
N           0.2300990    -0.8084756    -3.2654396
21
095_C9H9N3_8-0-17-18 (-120,) energy =    -512.6172913
C           2.4384110    -1.3560665    -0.4077381
H           2.6769188    -2.4174646    -0.2864631
H           1.6960638    -1.1064715     0.3595542
C           6.0150486     0.7952576     0.4233177
H           6.9454340     1.2900465     0.6848434
C           5.7153755    -0.4655433     0.9395728
H           6.4102926    -0.9672366     1.6110282
N           4.5931667    -1.1360941     0.6533536
C           3.7097148    -0.5547165    -0.1707336
C           3.9151094     0.7072215    -0.7385988
H           3.1736780     1.1357989    -1.4050856
C           5.0912919     1.3903263    -0.4351204
H           5.2821565     2.3709670    -0.8626336
C           1.3773963    -1.0510233    -3.8504644
H           1.4190621    -1.1164126    -4.9296372
C           2.3506898    -1.3940283    -2.9456119
H           3.3488724    -1.7903017    -3.0584267
N           1.8130941    -1.1221041    -1.7003720
C           0.5498946    -0.6428023    -1.9255623
H          -0.1011810    -0.3580655    -1.1084526
N           0.2539061    -0.5822571    -3.2053970
21
095_C9H9N3_8-0-17-18 (-105,) energy =    -512.6175995
C           2.5162513    -1.4659039    -0.4761553
H           2.8295025    -2.5142689    -0.4553220
H           1.7907294    -1.3407810     0.3359610
C           5.9425610     0.8783719     0.4613653
H           6.8333710     1.4242912     0.7567048
C           5.6457169    -0.3566463     1.0395130
H           6.3040563    -0.7863999     1.7928687
N           4.5706608    -1.0848914     0.7193303
C           3.7334420    -0.5920953    -0.2054106
C           3.9394203     0.6349104    -0.8427006
H           3.2383562     0.9915862    -1.5898524
C           5.0675951     1.3798258    -0.5005360
H           5.2582176     2.3364376    -0.9795443
C           1.3095349    -0.9885413    -3.8479004
H           1.2885828    -1.0348629    -4.9286166
C           2.2685428    -1.4841569    -3.0003336
H           3.1973659    -2.0086281    -3.1699297
N           1.8292119    -1.1813764    -1.7243888
C           0.6376159    -0.5228941    -1.8753845
H           0.0710214    -0.1734663    -1.0212903
N           0.2925558    -0.3889998    -3.1374342
21
095_C9H9N3_8-0-17-18 (-90,) energy =    -512.6175705
C           2.6087555    -1.5839506    -0.5665060
H           2.9961065    -2.5997893    -0.6941603
H           1.9213090    -1.6216393     0.2855353
C           5.8736345     0.9052600     0.5552713
H           6.7203113     1.4891359     0.9030943
C           5.5185610    -0.2799699     1.2021283
H           6.0865815    -0.6316125     2.0620526
N           4.4905722    -1.0477090     0.8276692
C           3.7638754    -0.6503820    -0.2277680
C           4.0357109     0.5180824    -0.9437476
H           3.4237204     0.7992712    -1.7939337
C           5.1132197     1.3075716    -0.5403684
H           5.3520197     2.2222946    -1.0762717
C           1.2230462    -0.8665900    -3.8233806
H           1.1230594    -0.8674499    -4.9006361
C           2.1642618    -1.5131950    -3.0618413
H           3.0029995    -2.1458221    -3.3129977
N           1.8493627    -1.2156374    -1.7483679
C           0.7488494    -0.4013496    -1.7933627
H           0.2910461    -0.0158524    -0.8910563
N           0.3409752    -0.1738222    -3.0231717
21
095_C9H9N3_8-0-17-18 (-75,) energy =    -512.6171542
C           2.7272136    -1.6853877    -0.6569008
H           3.1944664    -2.6323059    -0.9475748
H           2.1040933    -1.9040872     0.2161279
C           5.7957122     0.9585999     0.6501863
H           6.5882611     1.5856382     1.0469911
C           5.3741184    -0.1744271     1.3478583
H           5.8359765    -0.4427095     2.2967521
N           4.4013033    -0.9865943     0.9216023
C           3.8047021    -0.6915894    -0.2429371
C           4.1543940     0.4167796    -1.0191502
H           3.6456888     0.6162528    -1.9563089
C           5.1692457     1.2556097    -0.5584938
H           5.4632705     2.1275053    -1.1366193
C           1.0854909    -0.8158246    -3.7551952
H           0.8743925    -0.7994255    -4.8161208
C           2.0254372    -1.5640142    -3.0915616
H           2.7610251    -2.2815305    -3.4247230
N           1.8799107    -1.2457627    -1.7533004
C           0.8767113    -0.3152789    -1.6882297
H           0.5597494     0.1146439    -0.7465787
N           0.3705696    -0.0382420    -2.8707810
21
095_C9H9N3_8-0-17-18 (-60,) energy =    -512.6164099
C           2.8719737    -1.7395334    -0.8111782
H           3.4159145    -2.5776803    -1.2604469
H           2.3244883    -2.1417063     0.0470083
C           5.6970316     1.0321037     0.7532005
H           6.4220573     1.6959012     1.2141794
C           5.1841800    -0.0551245     1.4607910
H           5.5056930    -0.2508431     2.4824369
N           4.2825509    -0.9073385     0.9589956
C           3.8578295    -0.7013860    -0.2957733
C           4.3128257     0.3569891    -1.0895716
H           3.9378214     0.4861981    -2.0997919
C           5.2479669     1.2385704    -0.5506910
H           5.6183661     2.0730039    -1.1400191
C           0.8876727    -0.8452858    -3.7010904
H           0.5243373    -0.8607358    -4.7199644
C           1.8532712    -1.6396685    -3.1358539
H           2.4669436    -2.4385213    -3.5259751
N           1.9415848    -1.2396280    -1.8146142
C           1.0370650    -0.2221337    -1.6619548
H           0.9030544     0.2840579    -0.7147933
N           0.3823470     0.0385624    -2.7734255
21
095_C9H9N3_8-0-17-18 (-45,) energy =    -512.6155833
C           3.0195228    -1.7422610    -0.9798055
H           3.6202545    -2.4581130    -1.5523008
H           2.5462726    -2.2937167    -0.1610388
C           5.6112212     1.0939255     0.8491601
H           6.2716822     1.7765461     1.3751239
C           5.0138556     0.0292785     1.5224505
H           5.2027324    -0.1300688     2.5826694
N           4.1838389    -0.8454255     0.9394859
C           3.9226300    -0.6858445    -0.3651904
C           4.4751748     0.3492804    -1.1296833
H           4.2296217     0.4423391    -2.1830949
C           5.3319344     1.2542349    -0.5084202
H           5.7741146     2.0698418    -1.0740599
C           0.6634054    -0.9155533    -3.5998098
H           0.1298658    -0.9960176    -4.5375360
C           1.6606146    -1.7281077    -3.1226291
H           2.1449469    -2.6068680    -3.5228141
N           2.0124675    -1.2060963    -1.8911364
C           1.2117037    -0.1113941    -1.6965366
H           1.2767981     0.4921545    -0.8012450
N           0.3889402     0.0931231    -2.7035012
21
095_C9H9N3_8-0-17-18 (-30,) energy =    -512.6146586
C           3.1397275    -1.7389787    -1.1130992
H           3.7593391    -2.3329114    -1.7949681
H           2.7552291    -2.4087237    -0.3373312
C           5.5527919     1.1244699     0.9056989
H           6.1609588     1.8178221     1.4786040
C           4.8814378     0.0818487     1.5424248
H           4.9590523    -0.0492902     2.6202483
N           4.1108449    -0.8065170     0.9005973
C           3.9875726    -0.6829277    -0.4280841
C           4.6246616     0.3289846    -1.1583855
H           4.4911106     0.3926076    -2.2343090
C           5.4180101     1.2482670    -0.4777874
H           5.9232950     2.0451260    -1.0165584
C           0.4527110    -0.9467791    -3.4041037
H          -0.2247312    -1.0663656    -4.2392523
C           1.4663916    -1.7845282    -3.0124574
H           1.8312258    -2.7247124    -3.3997310
N           2.0377864    -1.1881977    -1.9034974
C           1.3400210    -0.0284720    -1.6900430
H           1.5761050     0.6395407    -0.8736281
N           0.3809888     0.1492932    -2.5745632
21
095_C9H9N3_8-0-17-18 (-15,) energy =    -512.6137488
C           3.2547051    -1.7314110    -1.2815957
H           3.8950631    -2.1801942    -2.0498383
H           2.9533471    -2.5172665    -0.5822579
C           5.4252611     1.1240017     1.0035498
H           5.9606002     1.8198818     1.6422870
C           4.6523557     0.1058157     1.5610205
H           4.5775656    -0.0022642     2.6415655
N           3.9651162    -0.7863052     0.8360880
C           4.0315109    -0.6908819    -0.4994983
C           4.7829817     0.2945300    -1.1526902
H           4.8045908     0.3341932    -2.2380454
C           5.4895142     1.2182766    -0.3868409
H           6.0807758     1.9941936    -0.8652188
C           0.3285343    -0.9930589    -3.2783813
H          -0.4469142    -1.1456060    -4.0175128
C           1.3546017    -1.8407268    -2.9439802
H           1.6430547    -2.8186825    -3.3010911
N           2.0698658    -1.1906311    -1.9556156
C           1.4391666     0.0081244    -1.7511935
H           1.7864646     0.7215177    -1.0178692
N           0.3882311     0.1602476    -2.5302201
21
095_C9H9N3_8-0-17-18 (0,) energy =    -512.6132173
C           2.0767402     0.2012733    -0.6313656
H           1.5504809    -0.0784826     0.2860979
H           1.7606764     1.2110182    -0.9187441
C           6.2342540     0.0892826     0.2518704
H           7.2821563     0.0166669     0.5265280
C           5.2751534    -0.6745564     0.9190987
H           5.5677344    -1.3498648     1.7211775
N           3.9681187    -0.6354900     0.6365454
C           3.5638252     0.1862447    -0.3440208
C           4.4486458     0.9936394    -1.0681177
H           4.0757511     1.6442403    -1.8541040
C           5.8080421     0.9423585    -0.7647495
H           6.5184280     1.5580140    -1.3095208
C           0.4736082    -1.8211879    -3.1667479
H          -0.3294164    -2.2160023    -3.7752290
C           0.3926794    -0.8845137    -2.1670959
H          -0.4338931    -0.3285580    -1.7489313
N           1.6837735    -0.7235821    -1.7004006
C           2.4678285    -1.5667822    -2.4419790
H           3.5324973    -1.6515703    -2.2803789
N           1.7726266    -2.2430836    -3.3330118
21
095_C9H9N3_8-0-17-18 (15,) energy =    -512.6137490
C           2.0652675     0.0512601    -0.5055394
H           1.6207618    -0.3710611     0.4008290
H           1.6603327     1.0594874    -0.6509979
C           6.2588174     0.2013337     0.1856323
H           7.3193311     0.2041633     0.4182693
C           5.3629273    -0.5074785     0.9855284
H           5.7165551    -1.0649701     1.8509824
N           4.0439194    -0.5568343     0.7586710
C           3.5650783     0.1181247    -0.2960823
C           4.3840736     0.8613428    -1.1558902
H           3.9511380     1.3903255    -2.0001594
C           5.7542527     0.9008658    -0.9108509
H           6.4146515     1.4685329    -1.5605496
C           0.4852883    -1.6491280    -3.2816747
H          -0.2981997    -1.9249088    -3.9752095
C           0.4176201    -0.7527550    -2.2448069
H          -0.3784756    -0.1275578    -1.8673259
N           1.6736826    -0.7532783    -1.6674025
C           2.4257732    -1.6447586    -2.3858811
H           3.4582388    -1.8509304    -2.1433224
N           1.7427356    -2.2017559    -3.3644908
21
095_C9H9N3_8-0-17-18 (30,) energy =    -512.6146587
C           2.0824618    -0.1263317    -0.4051892
H           1.7263323    -0.6815948     0.4683524
H           1.5916796     0.8538439    -0.4051373
C           6.2728665     0.3575194     0.1463687
H           7.3347431     0.4549460     0.3507060
C           5.4370930    -0.2965534     1.0501689
H           5.8388104    -0.7167880     1.9704672
N           4.1206114    -0.4579635     0.8610105
C           3.5833791     0.0446643    -0.2590877
C           4.3390821     0.7207386    -1.2260627
H           3.8607718     1.1068353    -2.1214107
C           5.7067481     0.8764231    -1.0188652
H           6.3193229     1.3945381    -1.7515819
C           0.5206208    -1.4930466    -3.3697942
H          -0.2360832    -1.6465805    -4.1277692
C           0.4806859    -0.6371633    -2.2980560
H          -0.2653427     0.0589662    -1.9432635
N           1.6842963    -0.8061196    -1.6387649
C           2.3800542    -1.7500395    -2.3475310
H           3.3645306    -2.0805808    -2.0474371
N           1.7110097    -2.1836816    -3.3954093
21
095_C9H9N3_8-0-17-18 (45,) energy =    -512.6155833
C           2.0784088    -0.2985474    -0.3201075
H           1.7931351    -0.9741402     0.4926922
H           1.5305914     0.6392796    -0.1736634
C           6.2417370     0.4367465     0.1615344
H           7.2971957     0.6041933     0.3533315
C           5.4352624    -0.1659879     1.1258795
H           5.8540666    -0.4753439     2.0819299
N           4.1295453    -0.4099621     0.9542587
C           3.5728299    -0.0460369    -0.2091424
C           4.2967413     0.5681644    -1.2386757
H           3.8038623     0.8400844    -2.1669868
C           5.6546475     0.8102738    -1.0478132
H           6.2440005     1.2825604    -1.8290272
C           0.5539950    -1.2387797    -3.4652050
H          -0.1512947    -1.2306359    -4.2855545
C           0.5607946    -0.4414555    -2.3486908
H          -0.0914017     0.3497585    -2.0087450
N           1.6611615    -0.8387222    -1.6109549
C           2.2545690    -1.8483573    -2.3222644
H           3.1469274    -2.3476966    -1.9695446
N           1.6160756    -2.1148947    -3.4421029
21
095_C9H9N3_8-0-17-18 (60,) energy =    -512.6164099
C           2.0956814    -0.4986446    -0.2496658
H           1.9135891    -1.2892530     0.4850121
H           1.4816899     0.3581530     0.0488554
C           6.1973564     0.5717670     0.1245285
H           7.2387130     0.8281874     0.2936876
C           5.4272305     0.0286277     1.1529626
H           5.8611249    -0.1433108     2.1366341
N           4.1424366    -0.3186847     1.0127107
C           3.5693821    -0.1256088    -0.1837688
C           4.2537363     0.4155194    -1.2774520
H           3.7491234     0.5506040    -2.2287614
C           5.5925179     0.7674213    -1.1165688
H           6.1531910     1.1865814    -1.9476717
C           0.6618575    -1.0011077    -3.5328336
H           0.0450428    -0.8209085    -4.4031313
C           0.7108122    -0.2784356    -2.3673979
H           0.1844966     0.6013501    -2.0269135
N           1.6399916    -0.9194313    -1.5678745
C           2.1062616    -1.9803390    -2.2985289
H           2.8575918    -2.6548060    -1.9087790
N           1.5370661    -2.0634556    -3.4821966
21
095_C9H9N3_8-0-17-18 (75,) energy =    -512.6171542
C           2.1459612    -0.7138656    -0.2016268
H           2.0820361    -1.6147407     0.4169828
H           1.4828897     0.0254582     0.2600643
C           6.1441121     0.7116006     0.1112788
H           7.1590686     1.0631658     0.2695335
C           5.3774976     0.2561845     1.1852262
H           5.7881804     0.2493508     2.1936897
N           4.1251947    -0.1954585     1.0616887
C           3.5812025    -0.2053736    -0.1644116
C           4.2620928     0.2317183    -1.3039068
H           3.7824939     0.2071884    -2.2766785
C           5.5690290     0.6969166    -1.1577727
H           6.1272635     1.0412428    -2.0241873
C           0.7470247    -0.8228233    -3.5307986
H           0.2031472    -0.5002524    -4.4085997
C           0.8663575    -0.1772993    -2.3254796
H           0.4803630     0.7607881    -1.9540972
N           1.6367141    -1.0075015    -1.5312496
C           1.9514795    -2.0929728    -2.3052598
H           2.5609733    -2.9036454    -1.9266887
N           1.4278584    -2.0202826    -3.5101924
21
095_C9H9N3_8-0-17-18 (90,) energy =    -512.6175705
C           2.1940734    -0.8804972    -0.2275347
H           2.2296388    -1.8670476     0.2472485
H           1.5119445    -0.2733119     0.3759849
C           6.0783170     0.8262797     0.1136000
H           7.0618876     1.2546033     0.2806135
C           5.2696657     0.4681861     1.1938442
H           5.6163669     0.6148090     2.2156343
N           4.0499725    -0.0621972     1.0610855
C           3.5845134    -0.2598375    -0.1815827
C           4.3132723     0.0641581    -1.3286674
H           3.8963467    -0.1088313    -2.3148986
C           5.5842779     0.6182303    -1.1721426
H           6.1769115     0.8821762    -2.0439379
C           0.7336804    -0.6443977    -3.5219845
H           0.2214791    -0.2111244    -4.3707575
C           0.9714667    -0.0731253    -2.2968094
H           0.7372296     0.8960025    -1.8812550
N           1.6360679    -1.0360382    -1.5592892
C           1.7700691    -2.1234424    -2.3813264
H           2.2619984    -3.0289074    -2.0489286
N           1.2348883    -1.9270027    -3.5669207
21
095_C9H9N3_8-0-17-18 (105,) energy =    -512.6175997
C           2.2788521    -1.0323018    -0.2630964
H           2.4077913    -2.0670958     0.0747845
H           1.5913795    -0.5572293     0.4435201
C           6.0286249     0.9433817     0.1241732
H           6.9750268     1.4453335     0.3007014
C           5.1651862     0.6683640     1.1854986
H           5.4308524     0.9540862     2.2020736
N           3.9833501     0.0595028     1.0398734
C           3.6169846    -0.3088343    -0.1966468
C           4.4094083    -0.0809077    -1.3254883
H           4.0698669    -0.3908893    -2.3081169
C           5.6369109     0.5590336    -1.1569011
H           6.2754001     0.7536865    -2.0144175
C           0.7019917    -0.5352543    -3.4757259
H           0.1974398    -0.0232074    -4.2842910
C           1.0850250    -0.0237379    -2.2610750
H           1.0007387     0.9582283    -1.8192885
N           1.6759095    -1.0752347    -1.5843383
C           1.6166135    -2.1541913    -2.4261227
H           2.0101456    -3.1206465    -2.1368242
N           1.0373122    -1.8682032    -3.5717277
21
095_C9H9N3_8-0-17-18 (120,) energy =    -512.6172914
C           2.3664077    -1.1566772    -0.3139021
H           2.5690834    -2.2094721    -0.0844276
H           1.6837477    -0.7883440     0.4584031
C           5.9867412     1.0388716     0.1167953
H           6.8971076     1.6012257     0.3006983
C           5.0809881     0.8015992     1.1508482
H           5.2767757     1.1771492     2.1538911
N           3.9374735     0.1244064     0.9937952
C           3.6565794    -0.3552092    -0.2263793
C           4.4996984    -0.1734510    -1.3278191
H           4.2276404    -0.5747484    -2.2986746
C           5.6841917     0.5387581    -1.1491363
H           6.3589248     0.6998592    -1.9855743
C           0.6661230    -0.4743618    -3.4307699
H           0.1690782     0.0921946    -4.2070280
C           1.2080245    -0.0068440    -2.2597044
H           1.2824489     0.9810669    -1.8300137
N           1.7232556    -1.1189124    -1.6182700
C           1.4541557    -2.1880018    -2.4311936
H           1.7459849    -3.1943033    -2.1576151
N           0.8233680    -1.8394213    -3.5310838
21
095_C9H9N3_8-0-17-18 (135,) energy =    -512.6166368
C           2.4457586    -1.2608188    -0.3661138
H           2.7115114    -2.3170930    -0.2391342
H           1.7631694    -0.9962319     0.4479638
C           5.9284200     1.1224557     0.1791723
H           6.8001824     1.7347128     0.3889694
C           4.9685771     0.8979709     1.1654871
H           5.0819833     1.3335946     2.1567709
N           3.8670493     0.1610877     0.9744807
C           3.6871175    -0.3942557    -0.2321684
C           4.5930180    -0.2305504    -1.2869464
H           4.4014824    -0.6940110    -2.2496479
C           5.7312107     0.5436078    -1.0746136
H           6.4519801     0.6916514    -1.8742177
C           0.6524651    -0.3812144    -3.3798958
H           0.1701626     0.2394034    -4.1234295
C           1.3443620     0.0215470    -2.2653947
H           1.5737247     0.9945980    -1.8577941
N           1.7770914    -1.1428590    -1.6555943
C           1.3030041    -2.1743237    -2.4225161
H           1.4904011    -3.2079159    -2.1593513
N           0.6318190    -1.7557446    -3.4727105
21
095_C9H9N3_8-0-17-18 (150,) energy =    -512.6155434
C           2.5332867    -1.3714471    -0.4253331
H           2.8609465    -2.4172649    -0.3854786
H           1.8609135    -1.2000358     0.4215828
C           5.8670105     1.1983589     0.1933026
H           6.6970038     1.8611870     0.4183186
C           4.8642241     0.9764941     1.1361435
H           4.9021229     1.4646980     2.1084138
N           3.8094367     0.1785855     0.9244399
C           3.7232847    -0.4435149    -0.2595220
C           4.6806501    -0.2879350    -1.2702238
H           4.5650404    -0.8083232    -2.2161307
C           5.7683393     0.5496825    -1.0381448
H           6.5262491     0.6922918    -1.8036280
C           0.6332433    -0.3330751    -3.3218228
H           0.1659030     0.3270707    -4.0404515
C           1.4748370     0.0025684    -2.2915254
H           1.8582987     0.9480774    -1.9399560
N           1.8223988    -1.1945857    -1.6892184
C           1.1436630    -2.1725725    -2.3679421
H           1.2244725    -3.2159142    -2.0893438
N           0.4322197    -1.6953932    -3.3653379
21
095_C9H9N3_8-0-17-18 (165,) energy =    -512.6139772
C           2.6472380    -1.4978856    -0.5233070
H           3.0444669    -2.5159299    -0.6135987
H           2.0078934    -1.4581519     0.3641376
C           5.7954134     1.2691634     0.1997629
H           6.5727938     1.9858127     0.4466465
C           4.7343352     1.0482147     1.0767637
H           4.6731367     1.5909678     2.0183688
N           3.7397184     0.1836979     0.8362347
C           3.7762034    -0.5083678    -0.3109438
C           4.8017709    -0.3594201    -1.2541227
H           4.7869313    -0.9398246    -2.1720560
C           5.8258919     0.5469301    -0.9938276
H           6.6341895     0.6849590    -1.7067287
C           0.6257406    -0.2360544    -3.2511793
H           0.1806027     0.4724695    -3.9370376
C           1.6067363    -0.0046273    -2.3202685
H           2.1411601     0.8865911    -2.0312538
N           1.8547440    -1.2307725    -1.7268555
C           0.9822285    -2.1151659    -2.3052442
H           0.9514410    -3.1567308    -2.0104647
N           0.2408305    -1.5584806    -3.2379305
21
095_C9H9N3_8-0-17-18 (180,) energy =    -512.6126411
C           2.8077788    -1.6663707    -0.6527232
H           3.2998944    -2.5843317    -0.9942833
H           2.2799621    -1.8822473     0.2806908
C           5.6595485     1.3582788     0.2392033
H           6.3505348     2.1471951     0.5202708
C           4.4908078     1.1486000     0.9727327
H           4.2602480     1.7733149     1.8338854
N           3.5962232     0.1956126     0.6867890
C           3.8431704    -0.5999034    -0.3649855
C           4.9887216    -0.4702852    -1.1594246
H           5.1478130    -1.1378517    -2.0015338
C           5.9114661     0.5275990    -0.8517047
H           6.8103319     0.6509162    -1.4494830
C           0.5908630    -0.1752571    -3.1194671
H           0.1673048     0.5644353    -3.7857660
C           1.6965010    -0.0493489    -2.3155287
H           2.3784853     0.7669806    -2.1398176
N           1.8273303    -1.2656728    -1.6707919
C           0.7914025    -2.0451362    -2.1106749
H           0.6509204    -3.0584643    -1.7558102
N           0.0305768    -1.4253563    -2.9877495
