22
311_C9H12O_0-4-17-18 (-165,) energy =    -425.3948128
C           1.6217107    -1.9688643    -1.1092261
H           1.5563692    -1.1699883    -1.8547448
H           0.9280736    -1.7268583    -0.3028232
H           1.2877586    -2.8998297    -1.5832410
C           3.0566599    -2.1589988    -0.5998295
H           3.6629721    -2.5673477    -1.4192647
H           3.0404582    -2.9520648     0.1634625
C           5.4949293     1.0168373     1.1117252
H           6.1188194     1.7961761     1.5412772
C           4.1194351     1.2207489     1.0055480
H           3.6945872     2.1529195     1.3588665
C           3.2906457     0.2309076     0.4576145
O           1.9311505     0.3826249     0.3662869
C           1.3468393     1.5974513     0.8000317
H           0.2752189     1.4935775     0.6178098
H           1.7277250     2.4577906     0.2333663
H           1.5150218     1.7710302     1.8714590
C           3.8379632    -0.9808806    -0.0197518
C           5.2213376    -1.1512524     0.1187546
H           5.6572057    -2.0846790    -0.2328672
C           6.0542449    -0.1788636     0.6715257
H           7.1230321    -0.3554132     0.7516802
22
311_C9H12O_0-4-17-18 (-150,) energy =    -425.3966859
C           1.7055873    -1.9253337    -1.2648669
H           1.8640631    -1.2326227    -2.0994941
H           0.9293363    -1.5053706    -0.6257246
H           1.3383874    -2.8707912    -1.6817095
C           3.0091686    -2.1845689    -0.4935706
H           3.6722807    -2.7962005    -1.1177330
H           2.7655068    -2.8151670     0.3757932
C           5.5076657     1.0338367     1.0308114
H           6.1406313     1.8282193     1.4174324
C           4.1262122     1.2247796     0.9737435
H           3.7061854     2.1597978     1.3255193
C           3.2893880     0.2139089     0.4831461
O           1.9240005     0.3335148     0.4611491
C           1.3367417     1.5440459     0.9044258
H           0.2594177     1.4147905     0.7823363
H           1.6682653     2.4008981     0.3027489
H           1.5590507     1.7405428     1.9618479
C           3.8305975    -0.9991648    -0.0004832
C           5.2170689    -1.1612896     0.1012289
H           5.6484885    -2.0991306    -0.2430357
C           6.0605431    -0.1681772     0.6020154
H           7.1327376    -0.3351936     0.6507638
22
311_C9H12O_0-4-17-18 (-135,) energy =    -425.3992951
C           1.8272015    -1.9055247    -1.4188084
H           2.2271385    -1.4404130    -2.3279256
H           1.0688626    -1.2409138    -1.0049995
H           1.3446879    -2.8457660    -1.7106373
C           2.9469903    -2.1888381    -0.4028317
H           3.6120683    -2.9618394    -0.8057439
H           2.4850868    -2.6267812     0.4951228
C           5.5026054     1.0514880     0.9524812
H           6.1429158     1.8589104     1.2978531
C           4.1172938     1.2323108     0.9438476
H           3.7025491     2.1708836     1.2927964
C           3.2754678     0.2033670     0.5067185
O           1.9078449     0.2941947     0.5405828
C           1.3164840     1.4884318     1.0224709
H           0.2375067     1.3322712     0.9634004
H           1.5903658     2.3548226     0.4057272
H           1.5968656     1.6870956     2.0654683
C           3.8103220    -1.0139799     0.0255621
C           5.1981791    -1.1697158     0.0871250
H           5.6235759    -2.1140498    -0.2459955
C           6.0499439    -0.1561456     0.5338435
H           7.1244590    -0.3140593     0.5521020
22
311_C9H12O_0-4-17-18 (-120,) energy =    -425.4016790
C           1.9621917    -1.9019045    -1.5267508
H           2.5478165    -1.6526056    -2.4194726
H           1.2848589    -1.0707637    -1.3204333
H           1.3600002    -2.7886912    -1.7568737
C           2.8816540    -2.1780086    -0.3235351
H           3.5068710    -3.0534892    -0.5353636
H           2.2517803    -2.4455424     0.5363525
C           5.5002280     1.0616032     0.8814212
H           6.1508932     1.8765331     1.1876387
C           4.1140554     1.2355954     0.9355226
H           3.7092025     2.1769073     1.2891643
C           3.2638182     0.1957379     0.5468000
O           1.8963189     0.2719657     0.6156776
C           1.3081010     1.4584060     1.1206896
H           0.2297244     1.2887264     1.1031357
H           1.5472570     2.3282617     0.4943983
H           1.6265833     1.6603277     2.1520325
C           3.7866190    -1.0279727     0.0707476
C           5.1750164    -1.1749306     0.0584295
H           5.5905262    -2.1219508    -0.2793840
C           6.0373086    -0.1461301     0.4495762
H           7.1130304    -0.2935081     0.4180593
22
311_C9H12O_0-4-17-18 (-105,) energy =    -425.4027504
C           2.0950877    -1.9402068    -1.6075485
H           2.8198457    -1.8297828    -2.4223099
H           1.4812210    -1.0355895    -1.5731688
H           1.4419719    -2.7876581    -1.8470411
C           2.8074454    -2.1664603    -0.2615224
H           3.3825900    -3.0992024    -0.3066253
H           2.0492832    -2.2976442     0.5200972
C           5.4755235     1.0632324     0.8370427
H           6.1360042     1.8811396     1.1128805
C           4.0925243     1.2314794     0.9576200
H           3.6997037     2.1726871     1.3251263
C           3.2317343     0.1875541     0.6058151
O           1.8656547     0.2622589     0.7004160
C           1.2874181     1.4533444     1.2056833
H           0.2085448     1.2858521     1.2065826
H           1.5185176     2.3179696     0.5691687
H           1.6225062     1.6626322     2.2303591
C           3.7404797    -1.0398307     0.1268241
C           5.1256378    -1.1756689     0.0268716
H           5.5294472    -2.1203092    -0.3316027
C           5.9983480    -0.1393764     0.3733191
H           7.0721023    -0.2765748     0.2831857
22
311_C9H12O_0-4-17-18 (-90,) energy =    -425.4025013
C           2.2357987    -2.0210541    -1.6857229
H           3.0771881    -2.0467744    -2.3873514
H           1.6960608    -1.0808402    -1.8409837
H           1.5588795    -2.8468786    -1.9347284
C           2.7260414    -2.1342864    -0.2308290
H           3.2350272    -3.0975669    -0.0985663
H           1.8626512    -2.1339274     0.4418396
C           5.4469925     1.0711072     0.8023385
H           6.1217276     1.8838481     1.0582432
C           4.0715348     1.2410436     0.9857821
H           3.6982103     2.1804824     1.3773335
C           3.1922692     0.2036156     0.6587693
O           1.8301477     0.2900373     0.7917582
C           1.2769985     1.4838974     1.3173851
H           0.1968611     1.3269509     1.3452364
H           1.5001328     2.3494357     0.6791818
H           1.6399250     1.6852777     2.3342093
C           3.6780004    -1.0237130     0.1580514
C           5.0560446    -1.1566675    -0.0186177
H           5.4400815    -2.0980688    -0.4067666
C           5.9457028    -0.1259798     0.2980464
H           7.0136960    -0.2621465     0.1538408
22
311_C9H12O_0-4-17-18 (-75,) energy =    -425.4016284
C           2.3938920    -2.1540870    -1.7548581
H           3.3256465    -2.3231878    -2.3063244
H           1.9556012    -1.2186062    -2.1200400
H           1.7032673    -2.9704036    -1.9973049
C           2.6488799    -2.0850854    -0.2385671
H           3.0574412    -3.0486323     0.0944263
H           1.7007381    -1.9448190     0.2864463
C           5.4315919     1.0752447     0.7798668
H           6.1238630     1.8744661     1.0315035
C           4.0662664     1.2527378     1.0172993
H           3.7179846     2.1855658     1.4458115
C           3.1625334     0.2329180     0.6971180
O           1.8080008     0.3353890     0.8846597
C           1.2917851     1.5250580     1.4545190
H           0.2111275     1.3823762     1.5178152
H           1.5042800     2.4011101     0.8270364
H           1.6931255     1.6999605     2.4618299
C           3.6169974    -0.9854065     0.1481309
C           4.9870456    -1.1253336    -0.0833811
H           5.3468718    -2.0598303    -0.5098315
C           5.8989486    -0.1135549     0.2269400
H           6.9593765    -0.2565362     0.0398650
22
311_C9H12O_0-4-17-18 (-60,) energy =    -425.4007687
C           2.5355505    -2.3056646    -1.7988993
H           3.5144026    -2.6288706    -2.1699389
H           2.2438620    -1.4146252    -2.3661713
H           1.8148169    -3.1010881    -2.0217019
C           2.5677931    -2.0114625    -0.2895047
H           2.8246374    -2.9374770     0.2446099
H           1.5690535    -1.7273246     0.0484939
C           5.4177635     1.0812760     0.7706341
H           6.1258567     1.8620575     1.0357217
C           4.0616234     1.2645039     1.0495668
H           3.7358023     2.1828683     1.5243713
C           3.1366099     0.2682581     0.7145706
O           1.7909782     0.3801879     0.9543694
C           1.3088593     1.5571625     1.5774334
H           0.2289803     1.4253985     1.6708737
H           1.5126979     2.4503564     0.9715437
H           1.7438169     1.6949825     2.5765054
C           3.5592978    -0.9296454     0.0980592
C           4.9226553    -1.0767903    -0.1690706
H           5.2632466    -1.9958020    -0.6413354
C           5.8553245    -0.0907944     0.1605850
H           6.9089323    -0.2402692    -0.0574951
22
311_C9H12O_0-4-17-18 (-45,) energy =    -425.4002545
C           2.6485648    -2.4714470    -1.8205997
H           3.6043848    -2.9811952    -1.9833187
H           2.5767744    -1.6582062    -2.5515212
H           1.8528664    -3.1933750    -2.0371717
C           2.5083050    -1.9387198    -0.3865428
H           2.5767140    -2.7822608     0.3165812
H           1.5067528    -1.5225788    -0.2544567
C           5.4253683     1.0717310     0.7418572
H           6.1464942     1.8320077     1.0303345
C           4.0778796     1.2495831     1.0641138
H           3.7712866     2.1420119     1.5975445
C           3.1377226     0.2785914     0.7011122
O           1.8015543     0.3800492     0.9930454
C           1.3398402     1.5396472     1.6626096
H           0.2609150     1.4123881     1.7719572
H           1.5398804     2.4504447     1.0822812
H           1.7938280     1.6416922     2.6574888
C           3.5312606    -0.8844642     0.0013606
C           4.8872825    -1.0293668    -0.3007632
H           5.2131893    -1.9193998    -0.8326688
C           5.8363394    -0.0693710     0.0604356
H           6.8829481    -0.2160908    -0.1908524
22
311_C9H12O_0-4-17-18 (-30,) energy =    -425.4005431
C           2.7061471    -2.5718322    -1.7214463
H           3.5937259    -3.2088825    -1.6380461
H           2.8633445    -1.8876716    -2.5629753
H           1.8619757    -3.2247378    -1.9695619
C           2.4146576    -1.8026184    -0.4271136
H           2.2691027    -2.5176747     0.3965802
H           1.4557775    -1.2846486    -0.5283258
C           5.3833682     1.1146857     0.8047766
H           6.1144534     1.8527116     1.1243235
C           4.0385966     1.2907390     1.1427414
H           3.7439804     2.1596379     1.7200433
C           3.0892070     0.3467366     0.7394571
O           1.7555595     0.4370380     1.0449350
C           1.3038893     1.5601937     1.7807466
H           0.2259835     1.4292863     1.8955377
H           1.4997493     2.5001842     1.2474816
H           1.7698228     1.6079464     2.7741230
C           3.4654530    -0.7835348    -0.0221624
C           4.8180128    -0.9304784    -0.3341991
H           5.1339952    -1.7933786    -0.9131258
C           5.7781816     0.0034888     0.0682501
H           6.8219836    -0.1418141    -0.1952968
22
311_C9H12O_0-4-17-18 (-15,) energy =    -425.4012112
C           2.7576918    -2.6658089    -1.6374557
H           3.5616834    -3.3471598    -1.3363055
H           3.0921821    -2.1265113    -2.5311332
H           1.8971930    -3.2819729    -1.9199112
C           2.3671592    -1.7011987    -0.5139642
H           2.0315773    -2.2751679     0.3621949
H           1.4859884    -1.1262007    -0.8235519
C           5.3816730     1.1207188     0.8147252
H           6.1212981     1.8378423     1.1610449
C           4.0414885     1.2907383     1.1765821
H           3.7585042     2.1329253     1.7977881
C           3.0830086     0.3735778     0.7381278
O           1.7515779     0.4537724     1.0540045
C           1.3104387     1.5381363     1.8521479
H           0.2326463     1.4067645     1.9672992
H           1.5079204     2.5041062     1.3682960
H           1.7837145     1.5303777     2.8431614
C           3.4428372    -0.7235715    -0.0779195
C           4.7892103    -0.8652361    -0.4139211
H           5.0922805    -1.7013453    -1.0367436
C           5.7601500     0.0439265     0.0215199
H           6.7998010    -0.0946743    -0.2613828
22
311_C9H12O_0-4-17-18 (0,) energy =    -425.4015240
C           2.7862677    -2.7561384    -1.5607259
H           3.5165135    -3.4155775    -1.0775675
H           3.2399675    -2.3698077    -2.4807862
H           1.9259550    -3.3698730    -1.8486274
C           2.3376867    -1.6267434    -0.6304079
H           1.8319870    -2.0554258     0.2457151
H           1.5630648    -1.0290174    -1.1301225
C           5.3829108     1.1036972     0.8111583
H           6.1291321     1.8000309     1.1846968
C           4.0461944     1.2631620     1.1914960
H           3.7720179     2.0774765     1.8525731
C           3.0803327     0.3730841     0.7163402
O           1.7491574     0.4495137     1.0335695
C           1.3185747     1.4891607     1.8946344
H           0.2406181     1.3577300     2.0080917
H           1.5193000     2.4798447     1.4651927
H           1.7972394     1.4224678     2.8808351
C           3.4295924    -0.6914666    -0.1461631
C           4.7710293    -0.8203945    -0.5046754
H           5.0661955    -1.6292303    -1.1659304
C           5.7492972     0.0645475    -0.0357601
H           6.7857716    -0.0642734    -0.3344728
22
311_C9H12O_0-4-17-18 (15,) energy =    -425.4012112
C           2.7964082    -2.8131597    -1.4394794
H           3.4329163    -3.4233773    -0.7884215
H           3.3632854    -2.5920087    -2.3511131
H           1.9339916    -3.4220114    -1.7317712
C           2.3249784    -1.5406765    -0.7297181
H           1.6672673    -1.8161805     0.1036141
H           1.6853917    -0.9575942    -1.4084338
C           5.3841606     1.1112347     0.8274224
H           6.1342713     1.7884333     1.2274029
C           4.0505336     1.2563061     1.2228154
H           3.7824887     2.0416278     1.9204385
C           3.0781374     0.3921056     0.7131970
O           1.7477202     0.4684487     1.0342558
C           1.3299286     1.4639681     1.9517922
H           0.2516032     1.3346260     2.0642192
H           1.5356158     2.4745824     1.5742867
H           1.8133576     1.3417027     2.9303399
C           3.4205830    -0.6389023    -0.1917344
C           4.7589343    -0.7500387    -0.5687621
H           5.0475923    -1.5313442    -1.2652362
C           5.7424751     0.1111841    -0.0689092
H           6.7763529    -0.0054507    -0.3813378
22
311_C9H12O_0-4-17-18 (30,) energy =    -425.4005431
C           2.7851480    -2.8725021    -1.3174376
H           3.2665526    -3.4222858    -0.5007703
H           3.4931756    -2.8261601    -2.1523834
H           1.9231246    -3.4574527    -1.6568798
C           2.3303259    -1.4816662    -0.8584545
H           1.5370317    -1.5939270    -0.1127543
H           1.8587390    -0.9558331    -1.7022964
C           5.3871122     1.1004152     0.8239173
H           6.1394963     1.7573759     1.2524015
C           4.0560906     1.2241418     1.2322039
H           3.7926429     1.9744129     1.9689197
C           3.0788040     0.3863132     0.6862424
O           1.7506773     0.4556069     1.0199563
C           1.3452588     1.4027347     1.9923186
H           0.2669954     1.2731894     2.1052821
H           1.5535439     2.4311083     1.6679175
H           1.8345134     1.2260586     2.9596502
C           3.4174575    -0.6008915    -0.2676348
C           4.7548466    -0.6900959    -0.6572649
H           5.0401344    -1.4361541    -1.3932039
C           5.7407653     0.1458682    -0.1231186
H           6.7726136     0.0460590    -0.4478026
22
311_C9H12O_0-4-17-18 (45,) energy =    -425.4002545
C           2.7730550    -2.9451683    -1.1840421
H           3.0328886    -3.3941258    -0.2188038
H           3.6297733    -3.0776985    -1.8536559
H           1.9368157    -3.5127739    -1.6080085
C           2.3846507    -1.4680344    -1.0190956
H           1.4748154    -1.4009884    -0.4179034
H           2.1228816    -1.0549030    -2.0047043
C           5.4346922     1.0362164     0.7895887
H           6.1892872     1.6690860     1.2492903
C           4.1052664     1.1452979     1.2042414
H           3.8454813     1.8595230     1.9771401
C           3.1219509     0.3385964     0.6204471
O           1.7967871     0.3981480     0.9686703
C           1.4047235     1.2925915     1.9945460
H           0.3274937     1.1588707     2.1125567
H           1.6111842     2.3367114     1.7234540
H           1.9041759     1.0637998     2.9456251
C           3.4558917    -0.5975814    -0.3841817
C           4.7945180    -0.6762534    -0.7752857
H           5.0727491    -1.3847941    -1.5510794
C           5.7847398     0.1270428    -0.2034963
H           6.8159931     0.0387839    -0.5333291
22
311_C9H12O_0-4-17-18 (60,) energy =    -425.4007687
C           2.6904294    -2.8950916    -1.0068533
H           2.7149532    -3.2075736     0.0431869
H           3.6543358    -3.1613995    -1.4543445
H           1.9136491    -3.4771866    -1.5163374
C           2.4041427    -1.3885817    -1.1265807
H           1.4222789    -1.1686872    -0.7022601
H           2.3481999    -1.1241103    -2.1922614
C           5.4221296     1.0646269     0.7929962
H           6.1738140     1.6794860     1.2810594
C           4.0960937     1.1332650     1.2259038
H           3.8371517     1.7970633     2.0427955
C           3.1156963     0.3478302     0.6076075
O           1.7962448     0.3601068     0.9813097
C           1.3993632     1.2126381     2.0403620
H           0.3243096     1.0625051     2.1584774
H           1.5932191     2.2680853     1.8063144
H           1.9054960     0.9552849     2.9805994
C           3.4505671    -0.5158080    -0.4580912
C           4.7871695    -0.5611124    -0.8620637
H           5.0594300    -1.2200338    -1.6838395
C           5.7742933     0.2176100    -0.2538615
H           6.8035481     0.1608334    -0.5965010
22
311_C9H12O_0-4-17-18 (75,) energy =    -425.4016284
C           2.5724564    -2.8336846    -0.8416383
H           2.4159040    -2.9705115     0.2341642
H           3.5640118    -3.2303808    -1.0872530
H           1.8253432    -3.4349979    -1.3730138
C           2.4553627    -1.3485449    -1.2283783
H           1.4494342    -0.9883491    -0.9989149
H           2.5863897    -1.2557849    -2.3148668
C           5.4319277     1.0739482     0.7815895
H           6.1752262     1.6789515     1.2942235
C           4.1062939     1.1003668     1.2220315
H           3.8399871     1.7211848     2.0698268
C           3.1382045     0.3254984     0.5726749
O           1.8213874     0.2844180     0.9531168
C           1.4074387     1.0848423     2.0460476
H           0.3370526     0.9030653     2.1618758
H           1.5740471     2.1531315     1.8528112
H           1.9239846     0.8036688     2.9736669
C           3.4830030    -0.4754211    -0.5372268
C           4.8185449    -0.4840094    -0.9452267
H           5.0950306    -1.1012975    -1.7979461
C           5.7953642     0.2806874    -0.3028672
H           6.8246819     0.2561176    -0.6490603
22
311_C9H12O_0-4-17-18 (90,) energy =    -425.4025013
C           2.4292873    -2.7574653    -0.6961546
H           2.1254621    -2.7151461     0.3551895
H           3.3979089    -3.2674285    -0.7470458
H           1.6950940    -3.3652978    -1.2381041
C           2.5179226    -1.3421797    -1.2953090
H           1.5308345    -0.8710295    -1.2553014
H           2.7939054    -1.4186401    -2.3547696
C           5.4403131     1.0965118     0.7681767
H           6.1683402     1.7064145     1.2966629
C           4.1169144     1.0683070     1.2178814
H           3.8370545     1.6520061     2.0874806
C           3.1705761     0.2861658     0.5478059
O           1.8570012     0.1878149     0.9290905
C           1.4195247     0.9414127     2.0463479
H           0.3557329     0.7222539     2.1577979
H           1.5520674     2.0196316     1.8848619
H           1.9469112     0.6489619     2.9642723
C           3.5316369    -0.4666539    -0.5905642
C           4.8625937    -0.4203888    -1.0080670
H           5.1514561    -0.9995470    -1.8830039
C           5.8201357     0.3519263    -0.3441936
H           6.8473707     0.3708899    -0.6968621
22
311_C9H12O_0-4-17-18 (105,) energy =    -425.4027504
C           2.2909120    -2.6855000    -0.6060475
H           1.8634307    -2.4902745     0.3816232
H           3.2011775    -3.2811146    -0.4720190
H           1.5730892    -3.2866700    -1.1764998
C           2.5970772    -1.3657857    -1.3375171
H           1.6593577    -0.8135778    -1.4742541
H           2.9851892    -1.5866724    -2.3392213
C           5.4575095     1.1317747     0.7449139
H           6.1680153     1.7592789     1.2766222
C           4.1420644     1.0429047     1.2110028
H           3.8498743     1.6010995     2.0932072
C           3.2182171     0.2389858     0.5366682
O           1.9081615     0.1004576     0.9178087
C           1.4512951     0.8295917     2.0438522
H           0.3933993     0.5822574     2.1520393
H           1.5568526     1.9124688     1.8945841
H           1.9856819     0.5398979     2.9585339
C           3.5958411    -0.4893322    -0.6129757
C           4.9141990    -0.3709232    -1.0545829
H           5.2140039    -0.9197102    -1.9450102
C           5.8493145     0.4278434    -0.3889390
H           6.8685635     0.4980973    -0.7578449
22
311_C9H12O_0-4-17-18 (120,) energy =    -425.4016790
C           2.1515532    -2.6226001    -0.5583046
H           1.6079895    -2.3005959     0.3321973
H           2.9739006    -3.2742670    -0.2402895
H           1.4727180    -3.2176731    -1.1804403
C           2.6808445    -1.4137100    -1.3506479
H           1.8211052    -0.8063769    -1.6664272
H           3.1680453    -1.7638858    -2.2683877
C           5.4698294     1.1772825     0.7259496
H           6.1629841     1.8304875     1.2495000
C           4.1687415     1.0274353     1.2152256
H           3.8685215     1.5705013     2.1040360
C           3.2647519     0.1921700     0.5515634
O           1.9599416     0.0297986     0.9410690
C           1.4927861     0.7554562     2.0652864
H           0.4394960     0.4902958     2.1760359
H           1.5795512     1.8392891     1.9115019
H           2.0332871     0.4783845     2.9802594
C           3.6557060    -0.5297136    -0.5988509
C           4.9535901    -0.3321709    -1.0741085
H           5.2590237    -0.8602290    -1.9749295
C           5.8664394     0.5041991    -0.4243656
H           6.8713031     0.6265127    -0.8182938
22
311_C9H12O_0-4-17-18 (135,) energy =    -425.3992951
C           1.9958687    -2.5474631    -0.5561964
H           1.2937815    -2.0969666     0.1453374
H           2.6849196    -3.1827204     0.0133908
H           1.4363533    -3.1946174    -1.2418867
C           2.7605403    -1.4791946    -1.3564973
H           2.0202068    -0.8574304    -1.8826025
H           3.3513557    -1.9695368    -2.1392487
C           5.4527890     1.2410705     0.6976957
H           6.1250975     1.9267020     1.2067350
C           4.1691789     1.0348108     1.2092248
H           3.8601944     1.5708479     2.0991068
C           3.2870813     0.1591509     0.5661065
O           1.9934225    -0.0315335     0.9782658
C           1.5303823     0.6743036     2.1164721
H           0.4891896     0.3743347     2.2506497
H           1.5774179     1.7610762     1.9660141
H           2.1009646     0.4114502     3.0172278
C           3.6919258    -0.5633647    -0.5800110
C           4.9695439    -0.2995240    -1.0822775
H           5.2837276    -0.8205706    -1.9842184
C           5.8559379     0.5822391    -0.4584306
H           6.8455007     0.7476588    -0.8746691
22
311_C9H12O_0-4-17-18 (150,) energy =    -425.3966859
C           1.8386618    -2.4318067    -0.5842972
H           1.0194596    -1.8483783    -0.1648255
H           2.3211524    -2.9723014     0.2382803
H           1.4186725    -3.1763392    -1.2711477
C           2.8428005    -1.5513592    -1.3445225
H           2.2820359    -0.9750597    -2.0970117
H           3.5155845    -2.1997920    -1.9192277
C           5.4351401     1.3098515     0.6598757
H           6.0879405     2.0287347     1.1479570
C           4.1689498     1.0620969     1.1923316
H           3.8535929     1.5987298     2.0794634
C           3.3080506     0.1428654     0.5785844
O           2.0355012    -0.0908746     1.0314153
C           1.5888274     0.5845761     2.1937412
H           0.5696054     0.2341835     2.3688161
H           1.5766409     1.6735593     2.0518235
H           2.2088375     0.3434422     3.0675606
C           3.7203338    -0.5795002    -0.5644654
C           4.9856025    -0.2803221    -1.0826549
H           5.3094441    -0.8087095    -1.9771492
C           5.8470838     0.6442462    -0.4897541
H           6.8252841     0.8349759    -0.9217473
22
311_C9H12O_0-4-17-18 (165,) energy =    -425.3948128
C           1.7126278    -2.3148817    -0.6442808
H           0.8984597    -1.6141415    -0.4543369
H           1.9795671    -2.7806737     0.3096857
H           1.3409824    -3.1023762    -1.3110966
C           2.9187868    -1.6342351    -1.3050501
H           2.5709166    -1.1649638    -2.2381106
H           3.6226203    -2.4137418    -1.6257138
C           5.4000332     1.3779946     0.6263761
H           6.0308990     2.1307758     1.0916204
C           4.1539487     1.0893647     1.1820781
H           3.8331018     1.6256917     2.0673368
C           3.3186262     0.1243995     0.6007103
O           2.0745844    -0.1633068     1.0998813
C           1.6338416     0.5050777     2.2679417
H           0.6394587     0.1072353     2.4807542
H           1.5624988     1.5902863     2.1143051
H           2.2928799     0.3067583     3.1239240
C           3.7354219    -0.5906034    -0.5442435
C           4.9871976    -0.2601022    -1.0788111
H           5.3178891    -0.7932107    -1.9683857
C           5.8220619     0.7048270    -0.5160108
H           6.7875622     0.9213940    -0.9641278
22
311_C9H12O_0-4-17-18 (180,) energy =    -425.3941335
C           1.5693178    -2.0297241    -0.9599078
H           1.3050572    -1.1900294    -1.6072699
H           1.0054953    -1.9208260    -0.0302560
H           1.2424185    -2.9545981    -1.4506262
C           3.0802019    -2.1126288    -0.7112943
H           3.5738808    -2.2952223    -1.6767202
H           3.2779876    -3.0175960    -0.1188550
C           5.4700165     0.9968189     1.1841707
H           6.0850273     1.7595065     1.6544658
C           4.1026970     1.2192084     1.0274649
H           3.6756537     2.1513048     1.3782372
C           3.2844350     0.2523986     0.4238507
O           1.9366911     0.4390332     0.2542791
C           1.3503932     1.6475511     0.7020252
H           0.2877835     1.5684446     0.4632494
H           1.7718618     2.5209771     0.1863046
H           1.4674006     1.7805927     1.7860369
C           3.8330413    -0.9649334    -0.0361649
C           5.2107105    -1.1485293     0.1404566
H           5.6481736    -2.0820988    -0.2093091
C           6.0334842    -0.1953341     0.7385966
H           7.0969675    -0.3846486     0.8530004
