31
328_C14H14N2O_8-9-10-15 (-165,) energy =    -726.6620057
N           2.4133597    -0.6069469    -0.6971872
H           2.4867018    -0.7798126    -1.6903353
C           5.8367082     1.2156946     0.9594337
H           6.7278596     1.6865251     1.3639725
C           4.5698719     1.5860154     1.4085826
H           4.4595759     2.3569067     2.1666749
C           3.4317403     0.9919583     0.8692652
H           2.4482750     1.3149810     1.1919802
C           3.5426756    -0.0046812    -0.1135058
C           4.8266841    -0.4049949    -0.5596927
C           4.9414379    -1.4692333    -1.6400779
H           4.2214711    -2.2726416    -1.4315760
H           4.6862856    -1.0583385    -2.6256568
C           5.9504286     0.2348421    -0.0260882
H           6.9366437    -0.0430038    -0.3872553
C           6.3281357    -2.0947566    -1.8092643
O           6.9863021    -1.9782733    -2.8306822
N           6.7471201    -2.8517979    -0.7438741
H           7.7048637    -3.1757637    -0.7628072
H           6.3103925    -2.7475195     0.1612281
C          -1.5627948    -0.8361383     0.6972400
H          -2.5886095    -0.9079753     1.0462158
C          -0.5019978    -0.8576791     1.6050985
H          -0.6994518    -0.9575790     2.6693640
C           0.8182917    -0.7711642     1.1679303
H           1.6322006    -0.8239299     1.8830732
C           1.1009920    -0.6407195    -0.2031558
C           0.0306842    -0.6207998    -1.1137354
H           0.2367630    -0.5175542    -2.1772385
C          -1.2840536    -0.7256124    -0.6661669
H          -2.0945301    -0.7097679    -1.3901669
31
328_C14H14N2O_8-9-10-15 (-150,) energy =    -726.6624538
N           2.4240571    -0.5343939    -0.7840335
H           2.4565938    -0.6037593    -1.7919260
C           5.8458180     1.2752190     0.9006762
H           6.7334098     1.7464847     1.3125494
C           4.5772444     1.6098593     1.3759244
H           4.4635605     2.3527488     2.1609776
C           3.4438706     1.0165510     0.8277920
H           2.4579059     1.3098790     1.1713667
C           3.5589042     0.0552364    -0.1903727
C           4.8430946    -0.3087450    -0.6615963
C           4.9985508    -1.3447587    -1.7635020
H           4.1563463    -2.0470102    -1.7216706
H           4.9891396    -0.8795743    -2.7563987
C           5.9639882     0.3296558    -0.1163583
H           6.9494102     0.0721784    -0.4967858
C           6.2963429    -2.1561889    -1.6930524
O           7.1340325    -2.1465692    -2.5812163
N           6.4148806    -2.9424890    -0.5741806
H           7.3133002    -3.3810023    -0.4214605
H           5.8548084    -2.7453830     0.2435438
C          -1.4825683    -0.9696125     0.7507820
H          -2.4902926    -1.0942535     1.1357084
C          -0.3836969    -1.0194017     1.6111375
H          -0.5329153    -1.1937489     2.6736722
C           0.9138680    -0.8657092     1.1272786
H           1.7586420    -0.9374291     1.8041396
C           1.1346028    -0.6382387    -0.2426129
C           0.0261561    -0.5890590    -1.1052625
H           0.1834638    -0.4110006    -2.1672566
C          -1.2650970    -0.7609033    -0.6122412
H          -2.1058352    -0.7206571    -1.2998944
31
328_C14H14N2O_8-9-10-15 (-135,) energy =    -726.6626262
N           2.4912842    -0.3943329    -0.7884750
H           2.4593473    -0.3466246    -1.7984360
C           5.9091499     1.4479749     0.8825295
H           6.7937833     1.9232817     1.2965631
C           4.6375350     1.7895593     1.3456776
H           4.5185694     2.5432197     2.1196236
C           3.5094662     1.1860753     0.7976498
H           2.5190073     1.4761382     1.1322776
C           3.6334055     0.2097390    -0.2042951
C           4.9188405    -0.1539963    -0.6645869
C           5.1046706    -1.2174643    -1.7386514
H           4.1686858    -1.7633270    -1.8902494
H           5.3868446    -0.7606013    -2.6939695
C           6.0378397     0.4894388    -0.1201000
H           7.0221875     0.2113298    -0.4860900
C           6.2240363    -2.1997436    -1.3824030
O           7.3858633    -2.0328290    -1.7236182
N           5.8190177    -3.2852011    -0.6514531
H           6.5425807    -3.8703242    -0.2555128
H           4.9117814    -3.3020615    -0.2080167
C          -1.3112391    -1.0348445     0.9267436
H          -2.2916585    -1.2134982     1.3580710
C          -0.1675093    -1.0629491     1.7277336
H          -0.2539015    -1.2728386     2.7908808
C           1.0956727    -0.8387892     1.1843011
H           1.9762052    -0.8868338     1.8164454
C           1.2364303    -0.5630325    -0.1877985
C           0.0824938    -0.5342730    -0.9903099
H           0.1761161    -0.3190206    -2.0531116
C          -1.1731897    -0.7748005    -0.4378185
H          -2.0495135    -0.7484071    -1.0803431
31
328_C14H14N2O_8-9-10-15 (-120,) energy =    -726.6628445
N           2.5336702    -0.3708127    -0.8415328
H           2.4642601    -0.2632058    -1.8456364
C           5.9114321     1.5322777     0.8533517
H           6.7853285     2.0156457     1.2806500
C           4.6301316     1.8575043     1.3022337
H           4.4928411     2.6077967     2.0763709
C           3.5166520     1.2376928     0.7422427
H           2.5188303     1.5080397     1.0720449
C           3.6646941     0.2644967    -0.2589546
C           4.9576231    -0.0726226    -0.7134344
C           5.1889514    -1.1293920    -1.7833255
H           4.2399386    -1.5306508    -2.1470161
H           5.7278972    -0.7016168    -2.6342000
C           6.0629315     0.5794812    -0.1512080
H           7.0546664     0.3053151    -0.5006365
C           6.0600717    -2.2705727    -1.2447783
O           7.2775986    -2.2761347    -1.3457592
N           5.3598721    -3.2801084    -0.6393301
H           5.8927101    -3.9639504    -0.1185702
H           4.3897757    -3.1535335    -0.3867095
C          -1.1978257    -1.1770776     0.9591999
H          -2.1590740    -1.3997991     1.4125773
C          -0.0311420    -1.1890983     1.7270295
H          -0.0802095    -1.4296270     2.7860508
C           1.2078678    -0.9084755     1.1551182
H           2.1072483    -0.9405620     1.7614950
C           1.3001287    -0.5918373    -0.2123838
C           0.1232713    -0.5779725    -0.9809691
H           0.1791666    -0.3309411    -2.0395328
C          -1.1077621    -0.8745936    -0.4005061
H          -2.0027238    -0.8587869    -1.0171704
31
328_C14H14N2O_8-9-10-15 (-105,) energy =    -726.6659090
N           2.5100785    -0.9264841     0.1110074
H           2.8920379    -1.8372189     0.3443773
C           5.5369091     1.9994711     0.3713990
H           6.3381820     2.7277479     0.4564563
C           4.2752038     2.2649683     0.9067975
H           4.0875626     3.2007271     1.4268636
C           3.2540858     1.3241090     0.8054810
H           2.2901691     1.5164518     1.2637651
C           3.4714950     0.1039285     0.1445311
C           4.7381837    -0.1611668    -0.4227770
C           4.9416254    -1.3857639    -1.2981584
H           3.9769616    -1.8044206    -1.5936131
H           5.4689043    -1.0905590    -2.2143709
C           5.7514279     0.7932167    -0.2929071
H           6.7222377     0.5936720    -0.7427292
C           5.7116929    -2.4722472    -0.5523558
O           5.1905879    -3.0932465     0.3685000
N           6.9943565    -2.6985887    -0.9560006
H           7.5536030    -3.3560340    -0.4301160
H           7.4423498    -2.1487592    -1.6721175
C          -1.6763412    -0.6747308     0.5581758
H          -2.7557725    -0.6236899     0.6663953
C          -0.9680552    -1.7826686     1.0280483
H          -1.4943490    -2.6038531     1.5079732
C           0.4171502    -1.8455842     0.9001776
H           0.9621156    -2.7063871     1.2815749
C           1.1268243    -0.8002948     0.2831846
C           0.4091917     0.3062372    -0.2052772
H           0.9356546     1.1066311    -0.7148221
C          -0.9752472     0.3642862    -0.0572691
H          -1.5110396     1.2287883    -0.4413748
31
328_C14H14N2O_8-9-10-15 (-90,) energy =    -726.6708166
N           2.5651374    -0.8853561     0.0508346
H           2.9786974    -1.8050829     0.1963079
C           5.5378027     2.0949334     0.3257615
H           6.3239126     2.8399042     0.4066450
C           4.2823147     2.3203492     0.8921933
H           4.0852467     3.2415703     1.4344791
C           3.2769309     1.3620043     0.7916431
H           2.3192015     1.5288385     1.2719308
C           3.5042269     0.1570417     0.1053819
C           4.7687026    -0.0671463    -0.4903178
C           4.9810798    -1.2871657    -1.3690383
H           4.0357777    -1.5752325    -1.8396609
H           5.6944308    -1.0455303    -2.1658071
C           5.7639938     0.9046294    -0.3647787
H           6.7281444     0.7343082    -0.8405003
C           5.4621556    -2.4819863    -0.5499322
O           4.7171131    -3.0389880     0.2550673
N           6.7454038    -2.8877094    -0.7504060
H           7.1138609    -3.6178992    -0.1562558
H           7.3842608    -2.3809665    -1.3430628
C          -1.6130621    -0.7670906     0.6169097
H          -2.6900790    -0.7512461     0.7563135
C          -0.8635614    -1.8796465     1.0057287
H          -1.3555588    -2.7398951     1.4526283
C           0.5185197    -1.8982235     0.8381642
H           1.0967318    -2.7631738     1.1549862
C           1.1845971    -0.8012982     0.2622103
C           0.4247232     0.3096987    -0.1461231
H           0.9148934     1.1494394    -0.6276869
C          -0.9563526     0.3221224     0.0408963
H          -1.5247828     1.1909773    -0.2817322
31
328_C14H14N2O_8-9-10-15 (-75,) energy =    -726.6727313
N           2.5819744    -0.8869985     0.0137108
H           2.9832789    -1.8242246     0.0526721
C           5.5065869     2.1523069     0.2427125
H           6.2697032     2.9233173     0.2934222
C           4.2777879     2.3189337     0.8821403
H           4.0771947     3.2209337     1.4546649
C           3.3028710     1.3279662     0.8112488
H           2.3649648     1.4545070     1.3402506
C           3.5269874     0.1423025     0.0878488
C           4.7717912    -0.0272392    -0.5710778
C           5.0524525    -1.2655148    -1.4060175
H           4.1758249    -1.5007179    -2.0224791
H           5.8907635    -1.0683010    -2.0826524
C           5.7381816     0.9772477    -0.4711748
H           6.6877646     0.8415342    -0.9857436
C           5.3269020    -2.5104297    -0.5595392
O           4.4400434    -3.0854705     0.0705663
N           6.6130968    -2.9541876    -0.5465796
H           6.8470833    -3.7128313     0.0796186
H           7.3657989    -2.4258865    -0.9601614
C          -1.5841450    -0.7931670     0.6752674
H          -2.6579227    -0.7847202     0.8385977
C          -0.8275211    -1.9263174     0.9825676
H          -1.3112562    -2.8109409     1.3892014
C           0.5505101    -1.9350517     0.7846947
H           1.1350528    -2.8164064     1.0376804
C           1.2066910    -0.8065734     0.2591509
C           0.4385519     0.3256969    -0.0681585
H           0.9178586     1.1920115    -0.5117379
C          -0.9382462     0.3271025     0.1488912
H          -1.5123267     1.2130233    -0.1114619
31
328_C14H14N2O_8-9-10-15 (-60,) energy =    -726.6707285
N           2.5700737    -0.8634360    -0.0632993
H           2.9265633    -1.8071199    -0.2091682
C           5.4760674     2.1985376     0.1304184
H           6.2225703     2.9866936     0.1570350
C           4.2817992     2.3161418     0.8409199
H           4.0892566     3.1966637     1.4486084
C           3.3293327     1.3035988     0.7925748
H           2.4184373     1.3955001     1.3728036
C           3.5332472     0.1408454     0.0236203
C           4.7547945     0.0105455    -0.6931506
C           5.1123940    -1.2384727    -1.4880349
H           4.3493807    -1.4266227    -2.2557925
H           6.0614238    -1.0731634    -2.0073037
C           5.7001341     1.0384845    -0.6091599
H           6.6346151     0.9284579    -1.1565058
C           5.1813906    -2.5279560    -0.6624312
O           4.1840969    -3.1720799    -0.3401001
N           6.4326724    -2.9356223    -0.3149183
H           6.5160024    -3.7162326     0.3225993
H           7.2390810    -2.3447444    -0.4500476
C          -1.5675674    -0.7979426     0.7657515
H          -2.6339690    -0.7990297     0.9720896
C          -0.8073216    -1.9549068     0.9518362
H          -1.2803505    -2.8676951     1.3053467
C           0.5617384    -1.9519209     0.7001399
H           1.1512008    -2.8517006     0.8583504
C           1.2045381    -0.7874101     0.2400593
C           0.4315132     0.3694197     0.0328824
H           0.8964566     1.2658666    -0.3627975
C          -0.9358783     0.3581225     0.3039532
H          -1.5141971     1.2634123     0.1359946
31
328_C14H14N2O_8-9-10-15 (-45,) energy =    -726.6663674
N           2.6083874    -0.8525573    -0.1006289
H           2.9192129    -1.7648970    -0.4252002
C           5.4667495     2.2555815     0.0371225
H           6.1930943     3.0626704     0.0412924
C           4.2937258     2.3387220     0.7861827
H           4.0954480     3.2113949     1.4032864
C           3.3687538     1.3013723     0.7623306
H           2.4742077     1.3680943     1.3701736
C           3.5729452     0.1465619    -0.0211861
C           4.7872108     0.0378445    -0.7585006
C           5.2333180    -1.2216600    -1.4996704
H           4.6414393    -1.3567461    -2.4160470
H           6.2740030    -1.0910966    -1.8108830
C           5.7043644     1.0946691    -0.6957703
H           6.6360664     1.0004151    -1.2506506
C           5.0828571    -2.5485507    -0.7461358
O           4.0465562    -3.2107655    -0.7498951
N           6.1933143    -2.9674377    -0.0804246
H           6.1125281    -3.7823472     0.5128700
H           6.9964122    -2.3684662     0.0398861
C          -1.5080567    -0.8639783     0.8365282
H          -2.5684091    -0.8868316     1.0710304
C          -0.7335073    -2.0220868     0.9373372
H          -1.1895266    -2.9576671     1.2512423
C           0.6282127    -1.9905699     0.6505964
H           1.2314256    -2.8905052     0.7405957
C           1.2478161    -0.7958876     0.2393508
C           0.4599536     0.3623206     0.1156916
H           0.9044696     1.2831817    -0.2449481
C          -0.8996605     0.3220493     0.4225389
H          -1.4906652     1.2287896     0.3191753
31
328_C14H14N2O_8-9-10-15 (-30,) energy =    -726.6638837
N           2.7851101    -0.3743898    -0.7037792
H           2.9133569    -0.7908180    -1.6172856
C           6.0620715     1.7917927     0.8424913
H           6.9095644     2.3501744     1.2288771
C           4.7598428     2.1066612     1.2329255
H           4.5748209     2.9292177     1.9187431
C           3.6848667     1.3841068     0.7284986
H           2.6721598     1.6610586     0.9996099
C           3.8791662     0.3118412    -0.1640232
C           5.1990303    -0.0119482    -0.5689665
C           5.5425118    -1.1549171    -1.5200530
H           5.5354532    -0.8031724    -2.5593832
H           6.5651211    -1.4871239    -1.3072980
C           6.2606597     0.7417918    -0.0504002
H           7.2734084     0.4848323    -0.3542708
C           4.6149395    -2.3752543    -1.5172616
O           3.8469862    -2.6180675    -2.4418354
N           4.7440982    -3.1975850    -0.4344427
H           4.0436881    -3.9188295    -0.3211373
H           5.2012852    -2.8645854     0.4031359
C          -0.9514664    -1.3718270     0.9872128
H          -1.9174119    -1.6358360     1.4075525
C           0.1046283    -0.9939329     1.8171161
H          -0.0321715    -0.9731108     2.8955565
C           1.3493599    -0.6531020     1.2885843
H           2.1643790    -0.3927595     1.9546949
C           1.5553126    -0.6699867    -0.1024814
C           0.4890826    -1.0577178    -0.9356367
H           0.6397576    -1.0823843    -2.0121675
C          -0.7435742    -1.4082247    -0.3939371
H          -1.5496899    -1.7056584    -1.0597259
31
328_C14H14N2O_8-9-10-15 (-15,) energy =    -726.6617764
N           2.7671552    -0.4324153    -0.6550694
H           2.8773071    -0.8151347    -1.5862462
C           6.0047483     1.8525153     0.8053282
H           6.8417973     2.4410128     1.1694096
C           4.6931609     2.1828446     1.1508043
H           4.4892763     3.0464953     1.7782057
C           3.6362800     1.4204717     0.6704081
H           2.6155764     1.7040235     0.9026502
C           3.8539246     0.2929940    -0.1469009
C           5.1819873    -0.0507068    -0.4987663
C           5.5987966    -1.2491524    -1.3559161
H           5.8741806    -0.8964772    -2.3576996
H           6.5065070    -1.6817605    -0.9185666
C           6.2267608     0.7490026    -0.0125851
H           7.2476383     0.4821258    -0.2791783
C           4.5845216    -2.3661843    -1.6106682
O           3.8460884    -2.3748813    -2.5918720
N           4.5944414    -3.3811727    -0.7004246
H           3.8542029    -4.0675504    -0.7651387
H           5.0589333    -3.2778482     0.1902269
C          -0.9720802    -1.3559211     1.0676728
H          -1.9385544    -1.6026222     1.4972566
C           0.0842835    -0.9456554     1.8822432
H          -0.0536268    -0.8816624     2.9588939
C           1.3292070    -0.6257988     1.3419624
H           2.1438949    -0.3369190     1.9969142
C           1.5370731    -0.6978893    -0.0478659
C           0.4702475    -1.1182813    -0.8655834
H           0.6210526    -1.1855543    -1.9404096
C          -0.7629011    -1.4460937    -0.3107797
H          -1.5691081    -1.7680778    -0.9651230
31
328_C14H14N2O_8-9-10-15 (0,) energy =    -726.6608627
N           2.7660441    -0.5581951    -0.5782444
H           2.8627076    -0.9250823    -1.5187661
C           5.9296378     1.9149796     0.7381816
H           6.7477551     2.5493319     1.0666316
C           4.6062339     2.2353117     1.0464843
H           4.3730058     3.1349913     1.6098023
C           3.5754259     1.4149539     0.6079419
H           2.5448628     1.6856668     0.8101380
C           3.8292426     0.2384666    -0.1261647
C           5.1691375    -0.0968964    -0.4354567
C           5.6538431    -1.3381192    -1.1935316
H           6.1767365    -1.0017861    -2.0980135
H           6.4106263    -1.8384047    -0.5760313
C           6.1870640     0.7660831    -0.0021962
H           7.2169842     0.5112003    -0.2456884
C           4.6505838    -2.3713491    -1.7030121
O           3.9167762    -2.1622733    -2.6672418
N           4.6753872    -3.5750851    -1.0663010
H           3.9717163    -4.2538127    -1.3256173
H           5.1463555    -3.6985405    -0.1824597
C          -1.0309851    -1.2710923     1.1156885
H          -2.0110519    -1.4671356     1.5405836
C           0.0264884    -0.8607628     1.9293992
H          -0.1244310    -0.7454836     3.0000646
C           1.2886511    -0.6059371     1.3956112
H           2.1033914    -0.3158826     2.0503420
C           1.5152648    -0.7450588     0.0134116
C           0.4464179    -1.1638333    -0.8025565
H           0.6109213    -1.2795511    -1.8713568
C          -0.8052387    -1.4270399    -0.2541337
H          -1.6127431    -1.7488805    -0.9070913
31
328_C14H14N2O_8-9-10-15 (15,) energy =    -726.6613605
N           2.7865234    -0.6456198    -0.4922970
H           2.8693371    -0.9928348    -1.4426532
C           5.8845545     1.9802810     0.6867956
H           6.6866081     2.6512108     0.9804620
C           4.5515292     2.2971989     0.9525547
H           4.2944661     3.2290426     1.4493418
C           3.5416774     1.4307486     0.5542451
H           2.5036164     1.6944961     0.7253929
C           3.8271722     0.2123878    -0.0928887
C           5.1770920    -0.1211757    -0.3557394
C           5.6903542    -1.4090019    -1.0026517
H           6.4362270    -1.1290143    -1.7580417
H           6.2410900    -1.9800905    -0.2425689
C           6.1727794     0.7902073     0.0267329
H           7.2102899     0.5415069    -0.1892504
C           4.7341970    -2.3397763    -1.7432176
O           4.0292283    -1.9661021    -2.6791493
N           4.7851055    -3.6471279    -1.3640400
H           4.1392667    -4.2864749    -1.8076304
H           5.2300061    -3.9405086    -0.5076662
C          -1.0473630    -1.1852393     1.1827471
H          -2.0356396    -1.3399725     1.6057502
C           0.0164110    -0.7824550     1.9927650
H          -0.1389227    -0.6310296     3.0582686
C           1.2888670    -0.5818067     1.4612977
H           2.1088830    -0.2950049     2.1113153
C           1.5206915    -0.7688520     0.0855835
C           0.4453590    -1.1770248    -0.7264087
H           0.6123205    -1.3256121    -1.7908863
C          -0.8177433    -1.3870141    -0.1800934
H          -1.6307130    -1.7019571    -0.8296738
31
328_C14H14N2O_8-9-10-15 (30,) energy =    -726.6629226
N           2.8097216    -0.6655716    -0.4468942
H           2.8802533    -0.9944863    -1.4052577
C           5.8816538     2.0344088     0.6318104
H           6.6777213     2.7231584     0.8994387
C           4.5453730     2.3619123     0.8617358
H           4.2802938     3.3182264     1.3049774
C           3.5411904     1.4732328     0.4951190
H           2.5001565     1.7413139     0.6404672
C           3.8395363     0.2256262    -0.0824794
C           5.1936156    -0.1207411    -0.3051952
C           5.6886189    -1.4506412    -0.8608223
H           6.6229172    -1.2633279    -1.4060945
H           5.9667841    -2.1018939    -0.0189667
C           6.1827613     0.8113396     0.0389929
H           7.2236891     0.5561242    -0.1501955
C           4.8160635    -2.2444671    -1.8301798
O           4.1348913    -1.7264265    -2.7126262
N           4.9181734    -3.5978539    -1.7115034
H           4.3647994    -4.1691323    -2.3351482
H           5.3774319    -4.0430798    -0.9320403
C          -1.0444994    -1.0789080     1.2197770
H          -2.0373363    -1.2031097     1.6422427
C           0.0259774    -0.6843391     2.0254556
H          -0.1294686    -0.5078503     3.0870692
C           1.3039334    -0.5242035     1.4940898
H           2.1289561    -0.2414361     2.1397961
C           1.5357930    -0.7444193     0.1233300
C           0.4537276    -1.1419609    -0.6840662
H           0.6196625    -1.3133998    -1.7453583
C          -0.8158466    -1.3120755    -0.1379287
H          -1.6342874    -1.6199781    -0.7840177
31
328_C14H14N2O_8-9-10-15 (45,) energy =    -726.6663669
N           2.7555030    -0.9611305     0.0190302
H           2.9558920    -1.8473646    -0.4378451
C           5.9581151     1.7465385     0.5305088
H           6.7874867     2.4286000     0.6915033
C           4.6383191     2.1931119     0.5824837
H           4.4186161     3.2412237     0.7692723
C           3.5871608     1.3054464     0.3842426
H           2.5675623     1.6718847     0.4011188
C           3.8127082    -0.0651924     0.1399064
C           5.1593443    -0.5209957     0.0469657
C           5.5628244    -1.9274274    -0.3932864
H           6.6443973    -1.9430571    -0.5572567
H           5.3511476    -2.6539183     0.4040382
C           6.1930319     0.4056080     0.2337937
H           7.2197908     0.0543665     0.1487479
C           4.8462079    -2.4904981    -1.6263690
O           3.7708820    -3.0842484    -1.5666547
N           5.4958411    -2.3104534    -2.8085183
H           5.0168074    -2.5725861    -3.6596670
H           6.3026582    -1.7089889    -2.8827156
C          -1.2977823    -0.6948853     1.1711880
H          -2.3436909    -0.6463802     1.4603125
C          -0.3297611     0.0080686     1.8902072
H          -0.6189925     0.5989496     2.7558396
C           1.0159881    -0.0499304     1.5296559
H           1.7573611     0.4692872     2.1266991
C           1.4178210    -0.8075442     0.4152165
C           0.4387351    -1.5196972    -0.3022320
H           0.7446480    -2.1129939    -1.1602830
C          -0.8992216    -1.4677614     0.0780347
H          -1.6360289    -2.0286405    -0.4914766
31
328_C14H14N2O_8-9-10-15 (60,) energy =    -726.6707286
N           2.7046529    -0.9491725     0.0056654
H           2.8704121    -1.7432586    -0.6114793
C           5.9180732     1.7624681     0.4290365
H           6.7527442     2.4456815     0.5543685
C           4.6015027     2.2093897     0.5377415
H           4.3923801     3.2580546     0.7333113
C           3.5405065     1.3232499     0.3834423
H           2.5222083     1.6900079     0.4416997
C           3.7586669    -0.0442935     0.1243838
C           5.0993034    -0.5028919     0.0005760
C           5.4462246    -1.9417205    -0.3588784
H           6.5326292    -2.0681544    -0.3220661
H           5.0130351    -2.6287886     0.3809546
C           6.1437254     0.4170511     0.1429648
H           7.1666222     0.0588405     0.0413846
C           4.9065587    -2.4140942    -1.7134108
O           3.7454621    -2.7846822    -1.8804798
N           5.8062784    -2.4162859    -2.7347577
H           5.4645889    -2.6126596    -3.6661081
H           6.7129663    -1.9836256    -2.6430728
C          -1.3095345    -0.6927282     1.2832239
H          -2.3452919    -0.6451030     1.6068479
C          -0.3096149    -0.0417091     2.0078858
H          -0.5632768     0.5080277     2.9110216
C           1.0231951    -0.0991380     1.6032963
H           1.7906170     0.3800641     2.2014419
C           1.3805628    -0.8037341     0.4394456
C           0.3694986    -1.4632437    -0.2842487
H           0.6379472    -2.0140523    -1.1823792
C          -0.9555628    -1.4117053     0.1391362
H          -1.7177601    -1.9307458    -0.4366781
31
328_C14H14N2O_8-9-10-15 (75,) energy =    -726.6727312
N           2.6804375    -0.9180937    -0.0664407
H           2.8171203    -1.5882857    -0.8234640
C           5.8930178     1.7983540     0.3124458
H           6.7296707     2.4845861     0.4044313
C           4.5835455     2.2364043     0.5124279
H           4.3856962     3.2790794     0.7476156
C           3.5155324     1.3514369     0.3956093
H           2.5003382     1.7111260     0.5201454
C           3.7289960    -0.0037805     0.0839186
C           5.0596575    -0.4550180    -0.1116824
C           5.3543553    -1.9168058    -0.4041059
H           6.4084146    -2.1268035    -0.1935396
H           4.7504486    -2.5534767     0.2544914
C           6.1120822     0.4579466    -0.0027609
H           7.1302736     0.1012181    -0.1475535
C           5.0012411    -2.3250418    -1.8360218
O           3.8373844    -2.4423310    -2.2179739
N           6.0518425    -2.5594982    -2.6683267
H           5.8549022    -2.7331721    -3.6447927
H           7.0019285    -2.3518930    -2.4019476
C          -1.2884215    -0.7476273     1.3548985
H          -2.3123181    -0.7206300     1.7163363
C          -0.2591504    -0.1627577     2.0950651
H          -0.4781064     0.3148682     3.0469825
C           1.0585427    -0.1951494     1.6419230
H           1.8505066     0.2325358     2.2476119
C           1.3709168    -0.8064834     0.4139658
C           0.3308821    -1.3990290    -0.3259505
H           0.5628698    -1.8770378    -1.2747146
C          -0.9789648    -1.3731388     0.1449788
H          -1.7645035    -1.8387265    -0.4450075
31
328_C14H14N2O_8-9-10-15 (90,) energy =    -726.6708154
N           2.6418148    -0.8973151    -0.0890102
H           2.7508853    -1.4849616    -0.9140629
C           5.8723024     1.8000186     0.2012585
H           6.7138265     2.4850291     0.2472409
C           4.5803194     2.2383089     0.4960393
H           4.4037474     3.2777051     0.7606159
C           3.5017980     1.3597171     0.4320304
H           2.4966262     1.7197291     0.6214906
C           3.6974151     0.0124569     0.0838151
C           5.0085347    -0.4422230    -0.1952551
C           5.2593921    -1.9225632    -0.4209213
H           6.2559459    -2.1877533    -0.0484530
H           4.5241233    -2.5129627     0.1346487
C           6.0717209     0.4616678    -0.1358852
H           7.0798674     0.1015988    -0.3331560
C           5.1137605    -2.2881723    -1.8959219
O           4.0139265    -2.2723323    -2.4465328
N           6.2530533    -2.6219561    -2.5615789
H           6.1963032    -2.7714240    -3.5598522
H           7.1650432    -2.5382253    -2.1401679
C          -1.2934536    -0.7606981     1.4233291
H          -2.3086195    -0.7410613     1.8089219
C          -0.2402211    -0.2308373     2.1712453
H          -0.4315778     0.1965826     3.1524738
C           1.0665055    -0.2551397     1.6871415
H           1.8782536     0.1290770     2.2960682
C           1.3425164    -0.8018067     0.4208472
C           0.2790952    -1.3381597    -0.3276230
H           0.4821940    -1.7651388    -1.3070683
C          -1.0196779    -1.3213494     0.1737631
H          -1.8245072    -1.7427459    -0.4233067
31
328_C14H14N2O_8-9-10-15 (105,) energy =    -726.6659194
N           2.5906785    -0.7802231    -0.4101832
H           2.8375548    -1.0424017    -1.3590072
C           5.8376247     1.2162218     1.3959497
H           6.6900281     1.7336050     1.8265244
C           4.5456600     1.7211000     1.5535269
H           4.3832655     2.6467787     2.0994983
C           3.4569295     1.0612212     0.9899894
H           2.4616635     1.4833745     1.0759915
C           3.6399527    -0.1330265     0.2738251
C           4.9414953    -0.6646606     0.1331421
C           5.1421951    -2.0438388    -0.4712764
H           5.8287393    -2.6176379     0.1643748
H           4.1935431    -2.5844393    -0.5043737
C           6.0197271     0.0260000     0.6939472
H           7.0198011    -0.3916489     0.5947922
C           5.6735969    -1.9469024    -1.8987391
O           4.9615013    -1.5332903    -2.8083363
N           6.9716771    -2.3144094    -2.0931581
H           7.3590163    -2.2382871    -3.0234478
H           7.5514508    -2.6799322    -1.3543882
C          -1.5667452    -0.5446767     0.2617602
H          -2.6390808    -0.4974085     0.4271828
C          -0.6789536    -0.4638062     1.3365669
H          -1.0599899    -0.3624415     2.3497351
C           0.6984620    -0.5282460     1.1353568
H           1.3742352    -0.4970070     1.9837938
C           1.2179816    -0.6585269    -0.1650889
C           0.3208814    -0.7418800    -1.2445411
H           0.7115421    -0.8427659    -2.2548222
C          -1.0539219    -0.6920030    -1.0286920
H          -1.7273710    -0.7595023    -1.8793234
31
328_C14H14N2O_8-9-10-15 (120,) energy =    -726.6617320
N           2.5150887    -0.7232997    -0.5187795
H           2.6972453    -0.9030066    -1.4984986
C           5.8038480     1.1802811     1.3228169
H           6.6626271     1.6747011     1.7676650
C           4.5199039     1.7034287     1.4860517
H           4.3676369     2.6179710     2.0531553
C           3.4278005     1.0730256     0.8975870
H           2.4364567     1.5039055     0.9888852
C           3.5952881    -0.1082119     0.1561000
C           4.8873836    -0.6572616     0.0074482
C           5.0980761    -2.0114970    -0.6514603
H           5.5370348    -2.6982742     0.0850436
H           4.1436136    -2.4433315    -0.9571936
C           5.9724651     0.0083947     0.5890683
H           6.9684475    -0.4129240     0.4714374
C           5.9837537    -1.9129293    -1.8934219
O           5.5854683    -1.3940964    -2.9267182
N           7.2551611    -2.4019260    -1.7591378
H           7.8453647    -2.4064151    -2.5800170
H           7.5342355    -2.9622288    -0.9685791
C          -1.5956299    -0.5920269     0.4189682
H          -2.6558141    -0.5722881     0.6534748
C          -0.6428308    -0.5543658     1.4393852
H          -0.9603072    -0.5139372     2.4783817
C           0.7197915    -0.5838130     1.1502907
H           1.4473584    -0.5823219     1.9553180
C           1.1584626    -0.6351286    -0.1851374
C           0.1961979    -0.6728479    -1.2095138
H           0.5230038    -0.7106609    -2.2467380
C          -1.1631116    -0.6586260    -0.9068727
H          -1.8874110    -0.6901011    -1.7168312
31
328_C14H14N2O_8-9-10-15 (135,) energy =    -726.6594824
N           2.4136430    -0.6243771    -0.6125083
H           2.5318168    -0.7449094    -1.6103593
C           5.7512440     1.1957141     1.2316162
H           6.6186602     1.6651932     1.6866687
C           4.4743156     1.7226027     1.4279743
H           4.3341606     2.6150492     2.0321143
C           3.3728280     1.1220054     0.8257229
H           2.3838599     1.5512862     0.9470552
C           3.5229685    -0.0307131     0.0378869
C           4.8103011    -0.5795435    -0.1519225
C           5.0125650    -1.8932548    -0.8942826
H           5.1779627    -2.6940514    -0.1594225
H           4.1160263    -2.1719766    -1.4501652
C           5.9052341     0.0558797     0.4454227
H           6.8981743    -0.3613712     0.2962364
C           6.1617020    -1.8357143    -1.9027815
O           6.0804337    -1.2074479    -2.9467207
N           7.2977114    -2.5114432    -1.5403098
H           8.0504180    -2.5596147    -2.2136838
H           7.3184651    -3.1462392    -0.7569229
C          -1.6357023    -0.6152018     0.5722627
H          -2.6799997    -0.6275107     0.8699176
C          -0.6236681    -0.6096321     1.5348293
H          -0.8784113    -0.6263961     2.5916096
C           0.7192798    -0.5978692     1.1646485
H           1.4935258    -0.6197885     1.9244874
C           1.0782475    -0.5753458    -0.1953850
C           0.0563520    -0.5798815    -1.1611743
H           0.3196324    -0.5593592    -2.2169750
C          -1.2824659    -0.6069004    -0.7783263
H          -2.0533406    -0.6115568    -1.5447287
31
328_C14H14N2O_8-9-10-15 (150,) energy =    -726.6587883
N           2.3824894    -0.6253262    -0.5848345
H           2.4883389    -0.8335974    -1.5685436
C           5.7531012     1.1949237     1.1910635
H           6.6286533     1.6560708     1.6387432
C           4.4765649     1.6918299     1.4493062
H           4.3420450     2.5554845     2.0951678
C           3.3640910     1.0982958     0.8594564
H           2.3745313     1.5064259     1.0343193
C           3.5038683    -0.0179488     0.0192296
C           4.7960773    -0.5305865    -0.2454282
C           4.9802394    -1.7755021    -1.1052767
H           4.8713351    -2.6738788    -0.4805318
H           4.2043904    -1.8457243    -1.8717097
C           5.8982626     0.0968993     0.3440603
H           6.8934115    -0.2885604     0.1404047
C           6.2993493    -1.7977601    -1.8814883
O           6.4665364    -1.1517306    -2.9035289
N           7.2831206    -2.5826935    -1.3418126
H           8.1574284    -2.6642855    -1.8423114
H           7.1267322    -3.1785831    -0.5435788
C          -1.6552202    -0.6209643     0.6404963
H          -2.6968054    -0.6349746     0.9474479
C          -0.6345780    -0.5956935     1.5936286
H          -0.8803683    -0.5999007     2.6526013
C           0.7050686    -0.5817120     1.2115313
H           1.4860175    -0.5917283     1.9644554
C           1.0514864    -0.5757005    -0.1518624
C           0.0209060    -0.6005228    -1.1079210
H           0.2752477    -0.5916029    -2.1660345
C          -1.3144622    -0.6307199    -0.7131484
H          -2.0921203    -0.6512586    -1.4723517
31
328_C14H14N2O_8-9-10-15 (165,) energy =    -726.6597304
N           2.3750746    -0.6444454    -0.5596510
H           2.4894212    -0.9451773    -1.5174240
C           5.7759550     1.1871280     1.1318153
H           6.6615980     1.6484077     1.5587344
C           4.5032599     1.6445136     1.4670468
H           4.3814204     2.4774246     2.1544801
C           3.3747825     1.0532229     0.9047990
H           2.3883982     1.4360739     1.1415321
C           3.4983979    -0.0237366     0.0126931
C           4.7894116    -0.4958942    -0.3336830
C           4.9240101    -1.6537252    -1.3149961
H           4.5594052    -2.5829091    -0.8539767
H           4.3004572    -1.4793413    -2.2002053
C           5.9043488     0.1319157     0.2277858
H           6.8977446    -0.2112603    -0.0454220
C           6.3288398    -1.8450127    -1.8898925
O           6.6983936    -1.2987231    -2.9165894
N           7.1332907    -2.6993520    -1.1815654
H           8.0997529    -2.7830093    -1.4662686
H           6.8776250    -3.0344228    -0.2645343
C          -1.6653569    -0.6518115     0.6576546
H          -2.7078540    -0.6680307     0.9613907
C          -0.6485215    -0.6012339     1.6135099
H          -0.8978452    -0.5891008     2.6715346
C           0.6924511    -0.5843170     1.2352231
H           1.4701495    -0.5798677     1.9912442
C           1.0425912    -0.5994122    -0.1267748
C           0.0158722    -0.6512570    -1.0856176
H           0.2739351    -0.6588988    -2.1427216
C          -1.3204404    -0.6851198    -0.6946288
H          -2.0955689    -0.7267086    -1.4554511
31
328_C14H14N2O_8-9-10-15 (180,) energy =    -726.6610420
N           2.4014858    -0.6355957    -0.6299898
H           2.5012053    -0.8872189    -1.6037373
C           5.8132608     1.2104727     1.0201241
H           6.7028595     1.6809067     1.4284316
C           4.5435641     1.6185765     1.4239984
H           4.4287641     2.4198293     2.1492284
C           3.4078533     1.0212420     0.8823184
H           2.4227596     1.3703336     1.1708674
C           3.5246842    -0.0145095    -0.0576410
C           4.8124313    -0.4453831    -0.4647749
C           4.9210735    -1.5519017    -1.5046944
H           4.3635896    -2.4347300    -1.1607923
H           4.4615814    -1.2353371    -2.4504594
C           5.9334962     0.1931083     0.0721613
H           6.9234900    -0.1101232    -0.2553662
C           6.3471333    -1.9529847    -1.8840794
O           6.8848406    -1.5874204    -2.9168266
N           6.9629470    -2.7933751    -0.9907090
H           7.9470934    -2.9777564    -1.1327432
H           6.5966382    -2.9160676    -0.0574051
C          -1.6145820    -0.7321504     0.6612697
H          -2.6505915    -0.7706028     0.9845113
C          -0.5799095    -0.7184269     1.5990037
H          -0.8081167    -0.7574181     2.6611075
C           0.7531138    -0.6739200     1.1956201
H           1.5457875    -0.6994851     1.9355823
C           1.0758389    -0.6225793    -0.1719551
C           0.0315203    -0.6378509    -1.1124508
H           0.2687362    -0.5947272    -2.1735658
C          -1.2966333    -0.7002381    -0.6976583
H          -2.0864487    -0.7127292    -1.4442351
