18
037_C8H6N4_1-0-9-8 (-165,) energy =    -527.4523731
C           2.9282120    -0.3858696     2.1087717
N           1.8704618    -1.1480849     1.7921248
C           1.0555939    -1.4774717     2.7965310
C           1.2726396    -1.0567567     4.1073290
C           2.4008086    -0.2660307     4.3175919
N           3.2339559     0.0735082     3.3316833
C           5.5004964     0.6834883    -1.0136043
C           5.8669158     0.8179259     0.3242801
N           5.0559119     0.4818125     1.3296159
C           3.8534178    -0.0049849     0.9874712
N           3.3974198    -0.1778867    -0.2623896
C           4.2262795     0.1704372    -1.2488677
H           0.2001131    -2.1005103     2.5386700
H           0.6024374    -1.3283099     4.9163305
H           2.6478121     0.1117759     5.3089373
H           6.1669477     0.9621222    -1.8233202
H           6.8445903     1.2082066     0.6041434
H           3.8523075     0.0338533    -2.2627588
18
037_C8H6N4_1-0-9-8 (-150,) energy =    -527.4525108
C           2.9240279    -0.3774678     2.1064586
N           1.9581664    -1.2628922     1.8201297
C           1.1465727    -1.5970519     2.8265558
C           1.2767996    -1.0580223     4.1050386
C           2.3140765    -0.1446653     4.2834340
N           3.1454443     0.1996541     3.2967429
C           5.4988531     0.6799914    -1.0099247
C           5.9149625     0.6727673     0.3200756
N           5.1010004     0.3416271     1.3255673
C           3.8483181     0.0029103     0.9867008
N           3.3417193    -0.0303376    -0.2546806
C           4.1740209     0.3142409    -1.2404274
H           0.3671864    -2.3224209     2.5970055
H           0.6091964    -1.3336425     4.9147964
H           2.4876043     0.3304426     5.2480345
H           6.1676868     0.9544234    -1.8190847
H           6.9349409     0.9396855     0.5933605
H           3.7611775     0.2961955    -2.2481497
18
037_C8H6N4_1-0-9-8 (-135,) energy =    -527.4521174
C           2.9145372    -0.3610879     2.1035966
N           2.0522387    -1.3569295     1.8563215
C           1.2459835    -1.6996656     2.8653017
C           1.2832258    -1.0613520     4.1033686
C           2.2205317    -0.0395274     4.2419382
N           3.0466917     0.3150062     3.2534224
C           5.4977296     0.6729581    -1.0067724
C           5.9450786     0.5286286     0.3050248
N           5.1265438     0.2074290     1.3110760
C           3.8397831     0.0210220     0.9859161
N           3.3003369     0.1214510    -0.2370310
C           4.1383180     0.4553530    -1.2226733
H           0.5495949    -2.5141087     2.6709638
H           0.6206355    -1.3449703     4.9144631
H           2.3167429     0.5156427     5.1739270
H           6.1706882     0.9386287    -1.8154093
H           6.9931931     0.6729204     0.5632183
H           3.7020318     0.5498908    -2.2160406
18
037_C8H6N4_1-0-9-8 (-120,) energy =    -527.4510944
C           2.9077033    -0.3513147     2.1026163
N           2.1569747    -1.4429303     1.9068030
C           1.3530830    -1.7898511     2.9173107
C           1.2861288    -1.0636260     4.1043770
C           2.1160067     0.0522307     4.1909496
N           2.9381636     0.4146743     3.2009189
C           5.4974324     0.6683071    -1.0081661
C           5.9625972     0.3829130     0.2737314
N           5.1429154     0.0668317     1.2815880
C           3.8369881     0.0326625     0.9866471
N           3.2770121     0.2731479    -0.2060155
C           4.1181779     0.5985283    -1.1928841
H           0.7454248    -2.6807091     2.7657985
H           0.6268238    -1.3520854     4.9164584
H           2.1281960     0.6786030     5.0816622
H           6.1715931     0.9279363    -1.8177767
H           7.0261714     0.4057552     0.5063703
H           3.6672368     0.8068919    -2.1619473
18
037_C8H6N4_1-0-9-8 (-105,) energy =    -527.4499237
C           2.9098127    -0.3582792     2.1035355
N           2.2758282    -1.5300080     1.9754747
C           1.4667635    -1.8705766     2.9847541
C           1.2851164    -1.0614620     4.1041042
C           2.0017390     0.1330044     4.1237204
N           2.8231501     0.4942920     3.1317858
C           5.4966505     0.6710658    -1.0077915
C           5.9680695     0.2347925     0.2284063
N           5.1500914    -0.0899502     1.2356108
C           3.8404938     0.0261021     0.9854216
N           3.2720640     0.4220350    -0.1599318
C           4.1127415     0.7478799    -1.1479897
H           0.9509617    -2.8247005     2.8881942
H           0.6244591    -1.3467416     4.9162112
H           1.9212859     0.8259414     4.9598490
H           6.1697937     0.9340038    -1.8171821
H           7.0349820     0.1390252     0.4239594
H           3.6569483     1.0778898    -2.0802468
18
037_C8H6N4_1-0-9-8 (-90,) energy =    -527.4494207
C           2.9230857    -0.3777865     2.1090597
N           2.4078579    -1.6120315     2.0654596
C           1.5860427    -1.9385468     3.0693466
C           1.2795558    -1.0544896     4.1013388
C           1.8777441     0.2018628     4.0367597
N           2.7029512     0.5535740     3.0442216
C           5.4938327     0.6793449    -1.0073708
C           5.9624629     0.0870825     0.1631427
N           5.1499232    -0.2561981     1.1689507
C           3.8502128     0.0037709     0.9853242
N           3.2859562     0.5658778    -0.0899437
C           4.1203307     0.8996144    -1.0810253
H           1.1629736    -2.9414928     3.0401091
H           0.6115367    -1.3294019     4.9109691
H           1.6939853     0.9551314     4.8013145
H           6.1618451     0.9540063    -1.8170979
H           7.0216361    -0.1214790     0.3058838
H           3.6678432     1.3577558    -1.9591439
18
037_C8H6N4_1-0-9-8 (-75,) energy =    -527.4499202
C           2.9347145    -0.3902801     2.1133549
N           2.5406588    -1.6685353     2.1642451
C           1.7089930    -1.9854260     3.1628528
C           1.2756522    -1.0498517     4.0996162
C           1.7522500     0.2494505     3.9403039
N           2.5782813     0.5946102     2.9465347
C           5.4915002     0.6850777    -1.0059414
C           5.9385634    -0.0534905     0.0873321
N           5.1283122    -0.4108094     1.0898458
C           3.8545247    -0.0133274     0.9837411
N           3.3162134     0.7048933    -0.0091412
C           4.1451903     1.0430805    -1.0028559
H           1.3815868    -3.0230098     3.2075437
H           0.6022248    -1.3177553     4.9071195
H           1.4641369     1.0446959     4.6261039
H           6.1565892     0.9684067    -1.8150564
H           6.9772207    -0.3701617     0.1692194
H           3.7120564     1.6214560    -1.8175182
18
037_C8H6N4_1-0-9-8 (-60,) energy =    -527.4510861
C           2.9346572    -0.3865220     2.1130013
N           2.6644108    -1.6903776     2.2579518
C           1.8308974    -2.0088933     3.2536487
C           1.2763841    -1.0507263     4.0995642
C           1.6306452     0.2732532     3.8488740
N           2.4520726     0.6201715     2.8526982
C           5.4922685     0.6843324    -1.0063457
C           5.8942471    -0.1791796     0.0104719
N           5.0821198    -0.5377606     1.0101619
C           3.8509450    -0.0110596     0.9834505
N           3.3599496     0.8360994     0.0697371
C           4.1884687     1.1689259    -0.9253999
H           1.6018548    -3.0669497     3.3716621
H           0.6036723    -1.3203733     4.9070812
H           1.2441020     1.0867802     4.4609362
H           6.1586045     0.9661573    -1.8149902
H           6.8990587    -0.5984478     0.0310283
H           3.7909166     1.8487829    -1.6774785
18
037_C8H6N4_1-0-9-8 (-45,) energy =    -527.4521150
C           2.9300304    -0.3804023     2.1101814
N           2.7808560    -1.6903714     2.3522169
C           1.9487816    -2.0129338     3.3467001
C           1.2767101    -1.0534232     4.1013163
C           1.5117576     0.2763246     3.7574675
N           2.3292628     0.6260959     2.7600443
C           5.4946550     0.6825693    -1.0077282
C           5.8374926    -0.2911089    -0.0716587
N           5.0229244    -0.6467546     0.9259869
C           3.8482144    -0.0038240     0.9847505
N           3.4179809     0.9531713     0.1508634
C           4.2469325     1.2811299    -0.8445238
H           1.8181380    -3.0765937     3.5406419
H           0.6066381    -1.3264068     4.9099126
H           1.0306553     1.0918946     4.2954625
H           6.1622154     0.9602585    -1.8168096
H           6.7965068    -0.8051179    -0.1176889
H           3.8958141     2.0501245    -1.5311180
18
037_C8H6N4_1-0-9-8 (-30,) energy =    -527.4525109
C           2.9260411    -0.3815459     2.1068717
N           2.2145127     0.6076692     2.6672548
C           1.3997656     0.2561450     3.6651444
C           1.2774867    -1.0606913     4.1045336
C           2.0630977    -2.0035570     3.4443324
N           2.8928111    -1.6776526     2.4500679
C           5.4998822     0.6778226    -1.0097109
C           4.3194621     1.3749316    -0.7592585
N           3.4906619     1.0500782     0.2360780
C           3.8508953    -0.0006117     0.9878061
N           4.9561932    -0.7449910     0.8360742
C           5.7722986    -0.3930871    -0.1605986
H           0.8279253     1.0600864     4.1266258
H           0.6093650    -1.3359180     4.9140036
H           2.0288127    -3.0572610     3.7178651
H           6.1681325     0.9528420    -1.8191460
H           4.0235334     2.2226940    -1.3757053
H           6.6745967    -0.9915067    -0.2791088
18
037_C8H6N4_1-0-9-8 (-15,) energy =    -527.4523735
C           2.9272114    -0.3818443     2.1089646
N           2.1034567     0.5723039     2.5684046
C           1.2882861     0.2219513     3.5654982
C           1.2752093    -1.0616375     4.1081278
C           2.1708833    -1.9712422     3.5490191
N           2.9996645    -1.6451624     2.5549279
C           5.5021884     0.6786311    -1.0132955
C           4.4033409     1.4616667    -0.6645415
N           3.5753866     1.1356878     0.3302673
C           3.8507411    -0.0020095     0.9858934
N           4.8767944    -0.8296330     0.7361791
C           5.6924014    -0.4785251    -0.2602721
H           0.6240177     0.9994231     3.9407369
H           0.6067555    -1.3367111     4.9173877
H           2.2280039    -2.9985370     3.9066729
H           6.1704476     0.9539928    -1.8226204
H           4.1751113     2.3828467    -1.1991948
H           6.5273903    -1.1493095    -0.4586511
18
037_C8H6N4_1-0-9-8 (0,) energy =    -527.4522350
C           2.9255687    -0.3825039     2.1087604
N           1.9965258     0.5182856     2.4636776
C           1.1806591     0.1685689     3.4599667
C           1.2741502    -1.0616769     4.1080613
C           2.2763708    -1.9182512     3.6562516
N           3.1044527    -1.5917747     2.6621433
C           5.5038368     0.6799527    -1.0144953
C           4.5007907     1.5344585    -0.5607004
N           3.6727970     1.2077731     0.4335149
C           3.8518573    -0.0014519     0.9868860
N           4.7812994    -0.9013342     0.6309001
C           5.5962437    -0.5499247    -0.3655673
H           0.4274274     0.9015123     3.7464515
H           0.6055843    -1.3366243     4.9172475
H           2.4236560    -2.9003154     4.1040321
H           6.1721727     0.9555026    -1.8237174
H           4.3526925     2.5167613    -1.0076359
H           6.3496440    -1.2826184    -0.6521321
18
037_C8H6N4_1-0-9-8 (15,) energy =    -527.4523735
C           2.9252298    -0.3830779     2.1069084
N           1.9010169     0.4462540     2.3584117
C           1.0850274     0.0953918     3.3546565
C           1.2744138    -1.0621365     4.1073043
C           2.3735804    -1.8450346     3.7592850
N           3.2018707    -1.5192579     2.7646849
C           5.5031115     0.6792018    -1.0123418
C           4.6068065     1.5883522    -0.4534831
N           3.7780107     1.2618531     0.5404541
C           3.8527952    -0.0007275     0.9880238
N           4.6745359    -0.9555675     0.5263670
C           5.4896896    -0.6047469    -0.4705567
H           0.2510389     0.7671867     3.5538396
H           0.6061625    -1.3370866     4.9167734
H           2.6024021    -2.7654213     4.2950486
H           6.1712374     0.9544790    -1.8218055
H           4.5484581     2.6153081    -0.8119133
H           6.1529587    -1.3824532    -0.8470664
18
037_C8H6N4_1-0-9-8 (30,) energy =    -527.4525109
C           2.9265291    -0.3812203     2.1073831
N           1.8208045     0.3625588     2.2587569
C           1.0048820     0.0102029     3.2553920
C           1.2774835    -1.0606320     4.1045356
C           2.4578503    -1.7577677     3.8539219
N           3.2864809    -1.4324262     2.8585631
C           5.4999361     0.6778366    -1.0095414
C           4.7145676     1.6208177    -0.3492085
N           3.8844994     1.2953100     0.6448467
C           3.8504219    -0.0009385     0.9873082
N           4.5624568    -0.9901588     0.4275345
C           5.3775998    -0.6390150    -0.5702021
H           0.1023192     0.6082377     3.3737749
H           0.6092286    -1.3358595     4.9138947
H           2.7537130    -2.6058291     4.4700023
H           6.1682393     0.9530047    -1.8188815
H           4.7493667     2.6745598    -0.6224968
H           5.9495775    -1.4430143    -1.0314305
18
037_C8H6N4_1-0-9-8 (45,) energy =    -527.4521151
C           2.9268756    -0.3746985     2.1096160
N           1.7521383     0.2681260     2.1684571
C           0.9376215    -0.0873342     3.1662455
C           1.2808036    -1.0608950     4.1022738
C           2.5286645    -1.6592773     3.9393284
N           3.3574142    -1.3313701     2.9437827
C           5.4981393     0.6753737    -1.0070705
C           4.8259116     1.6346127    -0.2522732
N           3.9939985     1.3119986     0.7423325
C           3.8450035     0.0020290     0.9841877
N           4.4457916    -1.0044252     0.3342110
C           5.2630872    -0.6544114    -0.6632607
H          -0.0215081     0.4264691     3.2122101
H           0.6132426    -1.3387573     4.9112893
H           2.8798727    -2.4281389     4.6260329
H           6.1682169     0.9484946    -1.8156232
H           4.9563140     2.6983062    -0.4461521
H           5.7441405    -1.4698977    -1.2014241
18
037_C8H6N4_1-0-9-8 (60,) energy =    -527.4510851
C           2.9236324    -0.3660145     2.1111848
N           1.6921672     0.1600795     2.0855609
C           0.8803910    -0.1997057     3.0851600
C           1.2828399    -1.0639298     4.1011791
C           2.5867077    -1.5480454     4.0187565
N           3.4149576    -1.2142187     3.0237246
C           5.4990389     0.6722006    -1.0051375
C           4.9444165     1.6316179    -0.1607855
N           4.1101513     1.3137251     0.8345941
C           3.8391690     0.0101151     0.9811489
N           4.3225921    -0.9971936     0.2428403
C           5.1446908    -0.6514857    -0.7532271
H          -0.1243309     0.2198388     3.0656560
H           0.6170859    -1.3463316     4.9101077
H           2.9849748    -2.2280907     4.7702733
H           6.1720334     0.9408452    -1.8127338
H           5.1734031     2.6895659    -0.2800411
H           5.5313251    -1.4656768    -1.3643540
18
037_C8H6N4_1-0-9-8 (75,) energy =    -527.4499202
C           2.9207108    -0.3656506     2.1102767
N           1.6469717     0.0315616     2.0042216
C           0.8372085    -0.3260980     3.0070539
C           1.2824432    -1.0636876     4.1017074
C           2.6290289    -1.4205972     4.0974303
N           3.4587631    -1.0826452     3.1042173
C           5.4994012     0.6725227    -1.0051095
C           5.0664355     1.6076941    -0.0677940
N           4.2344518     1.2903806     0.9304577
C           3.8405578     0.0121178     0.9809034
N           4.1965848    -0.9723518     0.1470156
C           5.0230483    -0.6269408    -0.8463025
H          -0.2012476    -0.0089694     2.9247424
H           0.6173279    -1.3462564     4.9111136
H           3.0626262    -1.9977954     4.9126494
H           6.1721924     0.9409350    -1.8129691
H           5.3931812     2.6454881    -0.1125503
H           5.3104964    -1.4216799    -1.5329744
18
037_C8H6N4_1-0-9-8 (90,) energy =    -527.4494160
C           2.9250159    -0.3815302     2.1094241
N           1.6251575    -0.1221023     1.9257683
C           0.8124513    -0.4657029     2.9313470
C           1.2812762    -1.0580289     4.1017422
C           2.6547996    -1.2779601     4.1755120
N           3.4892198    -0.9436749     3.1846444
C           5.4952925     0.6765954    -1.0070385
C           5.1884923     1.5607137     0.0247857
N           4.3667901     1.2344095     1.0288114
C           3.8520148     0.0000333     0.9855947
N           4.0726145    -0.9315552     0.0507094
C           4.8975589    -0.5799504    -0.9420895
H          -0.2467602    -0.2572880     2.7886079
H           0.6132910    -1.3329767     4.9113886
H           3.1073318    -1.7360945     5.0536116
H           6.1631390     0.9515639    -1.8167932
H           5.6112093     2.5638105     0.0537443
H           5.0814560    -1.3333563    -1.7064825
18
037_C8H6N4_1-0-9-8 (105,) energy =    -527.4499249
C           2.9342517    -0.4044043     2.1085576
N           1.6242348    -0.2889338     1.8592414
C           0.8060995    -0.6135748     2.8664216
C           1.2791556    -1.0493831     4.1021334
C           2.6630529    -1.1260400     4.2421944
N           3.5031172    -0.8001050     3.2536753
C           5.4896263     0.6831469    -1.0088789
C           5.3081497     1.4928576     0.1100987
N           4.4989354     1.1517108     1.1190384
C           3.8652529    -0.0202353     0.9906021
N           3.9521658    -0.8729549    -0.0374457
C           4.7735718    -0.5116491    -1.0293460
H          -0.2609846    -0.5180684     2.6715120
H           0.6065776    -1.3123294     4.9119583
H           3.1192384    -1.4557238     5.1743816
H           6.1503826     0.9685242    -1.8208464
H           5.8238199     2.4470818     0.2065774
H           4.8544707    -1.2044579    -1.8655501
18
037_C8H6N4_1-0-9-8 (120,) energy =    -527.4510927
C           2.9377845    -0.4078679     2.1083322
N           1.6320526    -0.4426357     1.8128125
C           0.8122457    -0.7603361     2.8200786
C           1.2784552    -1.0469765     4.1013327
C           2.6576212    -0.9772525     4.2869691
N           3.4984110    -0.6502855     3.3002843
C           5.4871415     0.6848868    -1.0080287
C           5.4211775     1.4133789     0.1777505
N           4.6173720     1.0664409     1.1881454
C           3.8675975    -0.0257583     0.9921771
N           3.8365956    -0.7927843    -0.1054193
C           4.6581595    -0.4314952    -1.0963274
H          -0.2513547    -0.7837552     2.5875809
H           0.6044278    -1.3079411     4.9106037
H           3.1085077    -1.1870929     5.2557542
H           6.1469258     0.9726651    -1.8199190
H           6.0291724     2.3041382     0.3285422
H           4.6467271    -1.0584468    -1.9866665
18
037_C8H6N4_1-0-9-8 (135,) energy =    -527.4521186
C           2.9350405    -0.4007482     2.1076087
N           1.6478758    -0.5875163     1.7838943
C           0.8296169    -0.9076566     2.7905962
C           1.2769605    -1.0508051     4.1024803
C           2.6365496    -0.8330679     4.3168904
N           3.4743742    -0.5002702     3.3307018
C           5.4922277     0.6842343    -1.0087437
C           5.5295549     1.3211412     0.2300488
N           4.7234455     0.9771532     1.2387158
C           3.8611993    -0.0185908     0.9906081
N           3.7290198    -0.6935937    -0.1598556
C           4.5550630    -0.3376402    -1.1478986
H          -0.2187252    -1.0513491     2.5329619
H           0.6042490    -1.3151239     4.9117671
H           3.0732222    -0.9259913     5.3102373
H           6.1542739     0.9691320    -1.8198413
H           6.2252371     2.1360668     0.4249192
H           4.4582565    -0.8913423    -2.0806872
18
037_C8H6N4_1-0-9-8 (150,) energy =    -527.4525110
C           2.9263679    -0.3812109     2.1073266
N           1.6735294    -0.7199689     1.7690006
C           0.8598221    -1.0509294     2.7747584
C           1.2763786    -1.0580126     4.1046015
C           2.6012529    -0.6922759     4.3348319
N           3.4331381    -0.3479243     3.3486481
C           5.4983307     0.6803624    -1.0100119
C           5.6282206     1.2190481     0.2686627
N           4.8164962     0.8847001     1.2748818
C           3.8508255    -0.0006518     0.9878092
N           3.6295738    -0.5776897    -0.2025296
C           4.4611474    -0.2330516    -1.1888831
H          -0.1602597    -1.3178154     2.5018188
H           0.6077596    -1.3322933     4.9139816
H           3.0143575    -0.6740709     5.3424524
H           6.1660567     0.9562852    -1.8195722
H           6.4074458     1.9444726     0.4985547
H           4.2878178    -0.7078288    -2.1536801
18
037_C8H6N4_1-0-9-8 (165,) energy =    -527.4523736
C           2.9215588    -0.3729882     2.1073920
N           1.7190452    -0.8597606     1.7652034
C           0.9077246    -1.1957321     2.7703318
C           1.2746961    -1.0609082     4.1080132
C           2.5488256    -0.5480209     4.3440819
N           3.3774917    -0.2000469     3.3573135
C           5.5021372     0.6795666    -1.0129415
C           5.7191619     1.0997356     0.2980186
N           4.9045178     0.7700865     1.3025421
C           3.8467233     0.0078949     0.9860205
N           3.5409619    -0.4510831    -0.2370563
C           4.3739616    -0.1112044    -1.2229819
H          -0.0700776    -1.5858126     2.4905909
H           0.6081156    -1.3392509     4.9176994
H           2.9225331    -0.4112252     5.3580588
H           6.1720897     0.9515431    -1.8220114
H           6.5745033     1.7229348     0.5559429
H           4.1266511    -0.4885623    -2.2144224
18
037_C8H6N4_1-0-9-8 (180,) energy =    -527.4522363
C           2.9233027    -0.3784107     2.1077143
N           1.7862554    -1.0073137     1.7730164
C           0.9746213    -1.3411968     2.7781795
C           1.2742568    -1.0604809     4.1099731
C           2.4820648    -0.4040078     4.3390547
N           3.3111472    -0.0592028     3.3519711
C           5.5026197     0.6805580    -1.0143899
C           5.7996044     0.9628893     0.3176596
N           4.9857220     0.6306483     1.3215536
C           3.8491280     0.0018308     0.9852414
N           3.4633600    -0.3182870    -0.2594285
C           4.2947324     0.0248077    -1.2451799
H           0.0527110    -1.8523218     2.5035104
H           0.6072906    -1.3368326     4.9200321
H           2.8000184    -0.1444471     5.3480850
H           6.1719658     0.9544838    -1.8233099
H           6.7220733     1.4722354     0.5937521
H           3.9796074    -0.2374776    -2.2543929
