18
056_C7H7NO3_0-2-7-8 (-165,) energy =    -551.3880408
N           1.9723308    -1.8385434    -0.7353067
H           2.8856921    -2.0076225    -1.1458015
C           1.8478059    -0.7473479     0.0607505
C           5.4174593     1.2859215     1.2556830
H           6.3749662     1.7466261     1.4728358
O           5.5060569     0.4064552     0.2434725
C           4.4057132    -0.3372399    -0.2166062
C           3.1367348    -0.0499072     0.4338699
C           3.0918305     0.8439673     1.4686879
H           2.1266704     1.0151044     1.9364139
C           4.2562065     1.5382532     1.9041568
H           4.2273075     2.2498521     2.7202512
O           0.7803481    -0.3518723     0.5290789
C           0.8186564    -2.5944516    -1.1855330
H           0.5328471    -2.3274674    -2.2115706
H          -0.0168905    -2.3704846    -0.5212253
H           1.0375826    -3.6665057    -1.1506166
O           4.6344643    -1.1349494    -1.1056828
18
056_C7H7NO3_0-2-7-8 (-150,) energy =    -551.3857380
N           2.0465067    -1.8782272    -0.6761546
H           2.9625174    -2.0715659    -1.0694602
C           1.8902493    -0.6750423    -0.0641604
C           5.4449714     1.2874419     1.2739014
H           6.4007787     1.7367972     1.5200940
O           5.5379539     0.4732365     0.2078844
C           4.4426441    -0.2552701    -0.2866730
C           3.1661959     0.0177422     0.3549876
C           3.1184091     0.8315878     1.4528894
H           2.1527727     0.9805468     1.9273168
C           4.2836351     1.4927681     1.9381190
H           4.2535904     2.1468111     2.8010001
O           0.7996670    -0.2074547     0.2586549
C           0.8960259    -2.6301100    -1.1466111
H           0.5377938    -2.2732645    -2.1216947
H           0.0848506    -2.5209989    -0.4247126
H           1.1686461    -3.6852156    -1.2338629
O           4.6751049    -1.0304747    -1.1937366
18
056_C7H7NO3_0-2-7-8 (-135,) energy =    -551.3818989
N           2.0489016    -1.8907619    -0.5996444
H           2.9711016    -2.1265036    -0.9521430
C           1.8899530    -0.6095777    -0.1641184
C           5.4423364     1.2781096     1.2781099
H           6.3973988     1.7195035     1.5409138
O           5.5235034     0.5494281     0.1499020
C           4.4276159    -0.1639860    -0.3658318
C           3.1549717     0.0778315     0.2950694
C           3.1201656     0.7895748     1.4609466
H           2.1644188     0.9012484     1.9649542
C           4.2927531     1.4156153     1.9787332
H           4.2746185     1.9960195     2.8930438
O           0.7972043    -0.0797549     0.0181626
C           0.9084758    -2.6491218    -1.0894386
H           0.6352876    -2.3740202    -2.1170274
H           0.0516982    -2.4497909    -0.4437240
H           1.1487608    -3.7150669    -1.0583401
O           4.6501370    -0.9075035    -1.3000375
18
056_C7H7NO3_0-2-7-8 (-120,) energy =    -551.3770086
N           2.0326017    -1.8992806    -0.4961040
H           2.9667741    -2.2017775    -0.7488900
C           1.8930064    -0.5633862    -0.2488124
C           5.4278129     1.2792942     1.2916729
H           6.3795341     1.7187572     1.5694979
O           5.4994120     0.6395803     0.1094495
C           4.4045681    -0.0568746    -0.4346722
C           3.1405379     0.1220377     0.2620869
C           3.1170168     0.7331252     1.4825095
H           2.1750725     0.7895852     2.0211455
C           4.2914883     1.3398408     2.0233452
H           4.2826520     1.8477117     2.9799588
O           0.8146692     0.0198981    -0.2510773
C           0.9159469    -2.6633658    -1.0345516
H           0.7686703    -2.4868030    -2.1082726
H           0.0058996    -2.3661955    -0.5111649
H           1.1002324    -3.7279821    -0.8689794
O           4.6153676    -0.7419278    -1.4129512
18
056_C7H7NO3_0-2-7-8 (-105,) energy =    -551.3726424
N           1.6222851    -1.4237179    -0.2403548
H           1.6200782    -1.4154812     0.7717125
C           2.8039488    -1.1068945    -0.8484419
C           5.4796890     1.1598013     1.5965059
H           6.1960730     1.6133363     2.2728080
O           5.2927484    -0.1453638     1.8682531
C           4.3824733    -0.9434580     1.1454717
C           3.7519377    -0.2927463     0.0069241
C           3.9357583     1.0393958    -0.2161721
H           3.4162603     1.5195743    -1.0413327
C           4.8319707     1.8010952     0.5974387
H           5.0035416     2.8561473     0.4225534
O           3.0440498    -1.3365991    -2.0261315
C           0.6647613    -2.3020794    -0.8990509
H          -0.3222729    -2.1570497    -0.4521487
H           0.9472576    -3.3595501    -0.8155816
H           0.6269656    -2.0386642    -1.9569778
O           4.1987225    -2.0736667     1.5361092
18
056_C7H7NO3_0-2-7-8 (-90,) energy =    -551.3708334
N           1.3867091    -1.3639870    -0.2501786
H           1.2161108    -1.0979839     0.7099104
C           2.6639731    -1.2463644    -0.7162490
C           5.4167875     0.8903322     1.7544154
H           6.1725092     1.2991164     2.4164504
O           5.2791082    -0.4391172     1.9143215
C           4.3567962    -1.2030468     1.1653871
C           3.5865625    -0.4506352     0.1839304
C           3.7382800     0.8977616     0.0612522
H           3.1459211     1.4430134    -0.6693795
C           4.6846977     1.6041935     0.8698521
H           4.8270397     2.6740132     0.7781532
O           3.0456254    -1.6840022    -1.7919330
C           0.3981396    -2.1951349    -0.9201681
H          -0.5849000    -1.7157886    -0.8804278
H           0.3305760    -3.1919800    -0.4665820
H           0.7079092    -2.3052443    -1.9599414
O           4.2768946    -2.3819631     1.4127103
18
056_C7H7NO3_0-2-7-8 (-75,) energy =    -551.3706806
N           1.3580540    -1.2851148    -0.2779276
H           1.1230395    -0.8603416     0.6079568
C           2.6731118    -1.3012379    -0.6453104
C           5.4313372     0.9940462     1.6678984
H           6.2136916     1.4493435     2.2657820
O           5.4280005    -0.3459106     1.7844967
C           4.5033121    -1.1701987     1.0994824
C           3.5747397    -0.4578362     0.2288815
C           3.5970485     0.9029152     0.1491601
H           2.8917227     1.4143925    -0.5014441
C           4.5525049     1.6673166     0.8915640
H           4.5906012     2.7480685     0.8308861
O           3.1093734    -1.8999131    -1.6170919
C           0.3518710    -2.0837113    -0.9589124
H          -0.5147788    -1.4695204    -1.2269445
H           0.0169783    -2.9213026    -0.3353468
H           0.8093579    -2.4800378    -1.8661270
O           4.5512992    -2.3551698     1.3139760
18
056_C7H7NO3_0-2-7-8 (-60,) energy =    -551.3709316
N           1.5695677    -1.2609848    -0.3412019
H           1.2818956    -0.7602448     0.4877788
C           2.9128928    -1.4053498    -0.5634195
C           5.5692458     1.1412543     1.6028631
H           6.3376983     1.6718507     2.1553118
O           5.6937904    -0.1907944     1.7238616
C           4.8114419    -1.1066186     1.0935569
C           3.7801415    -0.4877275     0.2640579
C           3.6763451     0.8703875     0.1828465
H           2.8976345     1.3095101    -0.4362256
C           4.5924904     1.7254949     0.8720266
H           4.5283556     2.8045015     0.8036853
O           3.3873213    -2.1608254    -1.3977850
C           0.5917277    -2.0955328    -1.0209176
H          -0.3248818    -1.5253902    -1.1998209
H           0.3469824    -2.9955417    -0.4422264
H           1.0206306    -2.4058090    -1.9745479
O           4.9768275    -2.2758821     1.3243975
18
056_C7H7NO3_0-2-7-8 (-45,) energy =    -551.3707981
N           1.5756143    -1.1974976    -0.4060293
H           1.2734126    -0.6388507     0.3799925
C           2.9154718    -1.4876694    -0.4991375
C           5.5976787     1.1323277     1.5515369
H           6.3735465     1.6872246     2.0690628
O           5.7912901    -0.1924306     1.6301488
C           4.9117815    -1.1411456     1.0347409
C           3.8079157    -0.5525894     0.2757076
C           3.6380729     0.8026296     0.2420518
H           2.8083143     1.2189607    -0.3238001
C           4.5509723     1.6856892     0.8963650
H           4.4317493     2.7614801     0.8584004
O           3.3615739    -2.3757862    -1.2088542
C           0.5847361    -2.0319046    -1.0680817
H          -0.3022391    -1.4353730    -1.3006062
H           0.2884732    -2.8912863    -0.4523402
H           1.0229674    -2.4097815    -1.9925865
O           5.1476892    -2.3013851     1.2389457
18
056_C7H7NO3_0-2-7-8 (-30,) energy =    -551.3697628
N           1.5523524    -1.1434662    -0.4710729
H           1.2290473    -0.5169511     0.2534312
C           2.8612925    -1.5700645    -0.3993643
C           5.6086702     1.0875098     1.5260823
H           6.3964620     1.6538703     2.0128316
O           5.8336306    -0.2309277     1.5759619
C           4.9404171    -1.1974278     1.0165776
C           3.7948627    -0.6225226     0.3068682
C           3.5989942     0.7315102     0.3053738
H           2.7432192     1.1419348    -0.2241555
C           4.5196383     1.6260262     0.9285250
H           4.3746274     2.6991140     0.9103073
O           3.2486993    -2.5895442    -0.9488864
C           0.5535806    -1.9954757    -1.1012847
H          -0.3431849    -1.4040658    -1.3043781
H           0.2852882    -2.8577478    -0.4767800
H           0.9591308    -2.3737121    -2.0408917
O           5.2136674    -2.3497201     1.2094412
18
056_C7H7NO3_0-2-7-8 (-15,) energy =    -551.3677021
N           1.6009962    -1.1125522    -0.5496291
H           1.2577681    -0.4173419     0.0990883
C           2.8758545    -1.6026528    -0.3349442
C           5.6582554     1.1107257     1.4801341
H           6.4481754     1.6930489     1.9446339
O           5.9388855    -0.1950492     1.4602411
C           5.0526995    -1.1841326     0.9152424
C           3.8403885    -0.6333985     0.2981668
C           3.5964353     0.7126609     0.3678423
H           2.7006209     1.1154031    -0.0964187
C           4.5137649     1.6231301     0.9682431
H           4.3211800     2.6882690     1.0017321
O           3.2142557    -2.7068989    -0.7316989
C           0.5981877    -1.9982156    -1.1272672
H          -0.2741552    -1.4047360    -1.4135487
H           0.2869914    -2.7907199    -0.4339177
H           1.0183028    -2.4749750    -2.0141665
O           5.4004815    -2.3240090     1.0419521
18
056_C7H7NO3_0-2-7-8 (0,) energy =    -551.3652498
N           1.6236698    -1.0985743    -0.6509079
H           1.2835447    -0.2762287    -0.1741423
C           2.8388498    -1.6264386    -0.2571883
C           5.6802145     1.0975701     1.4755510
H           6.4745294     1.6788079     1.9344288
O           5.9881028    -0.1960141     1.3813362
C           5.1064697    -1.1858682     0.8160051
C           3.8333878    -0.6464120     0.3171865
C           3.5753642     0.6931032     0.4527642
H           2.6479175     1.1069848     0.0679950
C           4.5020658     1.6023849     1.0371069
H           4.2843620     2.6594654     1.1250081
O           3.1069880    -2.8023772    -0.4505537
C           0.5999268    -2.0056326    -1.1537428
H          -0.2066440    -1.4147255    -1.5958436
H           0.1876855    -2.6533804    -0.3686196
H           1.0404531    -2.6463730    -1.9190479
O           5.5228485    -2.3082865     0.8265013
18
056_C7H7NO3_0-2-7-8 (15,) energy =    -551.3677023
N           1.5194034    -0.9865261    -0.5818436
H           1.6277872    -0.1206826    -1.0922680
C           2.6392513    -1.4910567     0.0529124
C           5.4865805     1.4034466     1.4372776
H           6.2858333     2.0313237     1.8191326
O           5.8537196     0.1231533     1.3361687
C           4.9871544    -0.9096110     0.8430504
C           3.6243259    -0.4589510     0.5371876
C           3.3119719     0.8706899     0.6404651
H           2.3000067     1.1978858     0.4187272
C           4.2500956     1.8405319     1.0989106
H           3.9875974     2.8866742     1.1957671
O           2.7581722    -2.6826748     0.2921556
C           0.5348564    -1.9215428    -1.1114080
H          -0.3587551    -1.3641424    -1.4043203
H           0.2742172    -2.6389587    -0.3317292
H           0.9117825    -2.4847507    -1.9752607
O           5.4805088    -1.9959253     0.7297177
18
056_C7H7NO3_0-2-7-8 (30,) energy =    -551.3697628
N           1.5777157    -0.9966708    -0.6615830
H           1.7663337    -0.1842493    -1.2328495
C           2.6050868    -1.4646993     0.1295598
C           5.4757894     1.4410508     1.4077835
H           6.2822910     2.0686336     1.7738445
O           5.8640296     0.1712116     1.2400249
C           4.9926412    -0.8547270     0.7573113
C           3.6103350    -0.4208399     0.5394019
C           3.2709949     0.8942985     0.7038018
H           2.2416504     1.2002467     0.5363222
C           4.2169136     1.8660493     1.1476379
H           3.9431650     2.9032422     1.2965321
O           2.6423349    -2.6134105     0.5424405
C           0.5659749    -1.9247887    -1.1469951
H          -0.2900052    -1.3563940    -1.5203894
H           0.2467467    -2.5589598    -0.3185507
H           0.9446866    -2.5761536    -1.9456192
O           5.4900190    -1.9297975     0.5663280
18
056_C7H7NO3_0-2-7-8 (45,) energy =    -551.3707982
N           1.6472404    -1.0327310    -0.7004162
H           1.9034420    -0.2711025    -1.3132318
C           2.5608565    -1.4143313     0.2522404
C           5.4792482     1.4913519     1.3940255
H           6.3005126     2.1163946     1.7295782
O           5.8667343     0.2250071     1.1831449
C           4.9769164    -0.7939319     0.7368782
C           3.5873769    -0.3620277     0.5842452
C           3.2434932     0.9442824     0.7892273
H           2.2060300     1.2449669     0.6656312
C           4.2074738     1.9133417     1.2048891
H           3.9375535     2.9463542     1.3865124
O           2.5076577    -2.4819335     0.8429040
C           0.6159692    -1.9530237    -1.1544023
H          -0.2536884    -1.3879939    -1.5023006
H           0.3286152    -2.5828732    -0.3116262
H           0.9691409    -2.6041645    -1.9647768
O           5.4577603    -1.8710765     0.5089492
18
056_C7H7NO3_0-2-7-8 (60,) energy =    -551.3709313
N           1.5632437    -1.0266579    -0.9232537
H           1.8827487    -0.2968969    -1.5442274
C           2.3472114    -1.3335530     0.1565105
C           5.4392645     1.4187824     1.2039481
H           6.3049305     1.9970280     1.5097122
O           5.7636019     0.1473018     0.9171128
C           4.8081103    -0.8140035     0.4952042
C           3.4329032    -0.3234549     0.4386647
C           3.1488802     0.9812682     0.7199535
H           2.1189804     1.3263021     0.6669034
C           4.1762880     1.8946491     1.1146972
H           3.9604204     2.9285584     1.3544615
O           2.1699044    -2.3037108     0.8772595
C           0.4840842    -1.8946078    -1.3648454
H          -0.4316272    -1.3179926    -1.5355159
H           0.3100998    -2.6263733    -0.5750504
H           0.7475523    -2.4264528    -2.2872507
O           5.2207246    -1.9057912     0.2033158
18
056_C7H7NO3_0-2-7-8 (75,) energy =    -551.3706807
N           1.5992363    -1.0707164    -0.9595799
H           1.9926101    -0.4154549    -1.6201449
C           2.2620889    -1.2589948     0.2193154
C           5.4658001     1.3990541     1.1669999
H           6.3628625     1.9491645     1.4306226
O           5.7446748     0.1392468     0.7872588
C           4.7421807    -0.7808911     0.3972594
C           3.3781587    -0.2694531     0.4716315
C           3.1352643     1.0189660     0.8450958
H           2.1110771     1.3817218     0.8878648
C           4.2083486     1.8946978     1.2055858
H           4.0315004     2.9175097     1.5150017
O           1.9749391    -2.1160534     1.0415620
C           0.5389188    -1.9603686    -1.4047192
H          -0.3448874    -1.3888578    -1.7087052
H           0.2811839    -2.6063196    -0.5646445
H           0.8669855    -2.5845124    -2.2445826
O           5.1023737    -1.8687049     0.0239122
18
056_C7H7NO3_0-2-7-8 (90,) energy =    -551.3708334
N           1.6504238    -1.1412025    -0.9751580
H           2.1643486    -0.6231124    -1.6745123
C           2.1978053    -1.2242772     0.2722127
C           5.5316650     1.3226678     1.0759928
H           6.4620047     1.8463578     1.2676353
O           5.7455468     0.0920953     0.5740871
C           4.6909476    -0.7868210     0.2417083
C           3.3538165    -0.2750452     0.5115331
C           3.1729891     0.9827335     1.0029962
H           2.1665538     1.3504902     1.1869910
C           4.2947724     1.8205322     1.3001203
H           4.1705845     2.8186597     1.7019949
O           1.7757639    -1.9502808     1.1605145
C           0.6149113    -2.0603232    -1.4222544
H          -0.1147212    -1.5312032    -2.0430507
H           0.1191243    -2.4572938    -0.5357900
H           1.0339540    -2.8974768    -1.9946018
O           4.9839787    -1.8528039    -0.2432762
18
056_C7H7NO3_0-2-7-8 (105,) energy =    -551.3726424
N           1.8297748    -1.2096262    -0.8277626
H           2.5360741    -0.9359904    -1.4990445
C           2.1813001    -1.1327614     0.4901924
C           5.4242730     1.5367026     1.2854198
H           6.3305433     2.1094171     1.4496048
O           5.6783887     0.3617778     0.6794243
C           4.6555026    -0.5437168     0.3305008
C           3.3209996    -0.1791711     0.7816103
C           3.0947740     1.0346877     1.3591351
H           2.0826835     1.3107956     1.6433476
C           4.1768900     1.9298062     1.6295657
H           4.0171173     2.8901408     2.1043148
O           1.5579828    -1.6770811     1.3916095
C           0.8307722    -2.1729168    -1.2708480
H           0.4335780    -1.8586783    -2.2396005
H           0.0239415    -2.1945425    -0.5369660
H           1.2437170    -3.1860008    -1.3611401
O           4.9690978    -1.5190775    -0.3129778
18
056_C7H7NO3_0-2-7-8 (120,) energy =    -551.3770081
N           1.9404871    -1.3101087    -0.8458693
H           2.7650634    -1.2711629    -1.4345938
C           2.1520761    -1.0712510     0.4819799
C           5.4368133     1.5506882     1.2552162
H           6.3454824     2.1243173     1.4012482
O           5.6641114     0.4267227     0.5502038
C           4.6283725    -0.4533194     0.1859749
C           3.3325372    -0.1759420     0.7854108
C           3.1282529     0.9983328     1.4508991
H           2.1330001     1.2211163     1.8255981
C           4.2087894     1.8971412     1.7047301
H           4.0661079     2.8215379     2.2508931
O           1.3614259    -1.3858599     1.3646513
C           0.8614270    -2.1924857    -1.2670290
H           0.6476113    -2.0141777    -2.3240364
H          -0.0255259    -1.9659586    -0.6733536
H           1.1095640    -3.2525985    -1.1244020
O           4.9049798    -1.3420830    -0.5914725
18
056_C7H7NO3_0-2-7-8 (135,) energy =    -551.3818989
N           1.9866408    -1.4031480    -0.8488896
H           2.8520909    -1.4614608    -1.3759993
C           2.1073432    -0.9928143     0.4447175
C           5.4533811     1.5411380     1.2485205
H           6.3705182     2.1012945     1.3938688
O           5.6443029     0.4680449     0.4595633
C           4.5930520    -0.3855468     0.0824716
C           3.3200887    -0.1415884     0.7419800
C           3.1542427     0.9809777     1.5031535
H           2.1742967     1.1690126     1.9324508
C           4.2469582     1.8571616     1.7738711
H           4.1320308     2.7411249     2.3891429
O           1.2312731    -1.1382991     1.2928590
C           0.8735920    -2.2475627    -1.2535010
H           0.7501736    -2.1803092    -2.3375706
H          -0.0329243    -1.8922174    -0.7608617
H           1.0256754    -3.2991707    -0.9755623
O           4.8477162    -1.2309609    -0.7514782
18
056_C7H7NO3_0-2-7-8 (150,) energy =    -551.3857402
N           1.9971529    -1.4835798    -0.8402452
H           2.8809122    -1.5791561    -1.3310537
C           2.0458969    -0.9037286     0.3876029
C           5.4573433     1.5258785     1.2471469
H           6.3848580     2.0669477     1.3990579
O           5.6102229     0.5085207     0.3812049
C           4.5438668    -0.3187710    -0.0104513
C           3.2844266    -0.0883378     0.6794947
C           3.1624311     0.9719877     1.5342218
H           2.1950829     1.1341903     2.0007083
C           4.2725334     1.8132901     1.8351754
H           4.1880190     2.6504833     2.5172051
O           1.1126957    -0.9137188     1.1884302
C           0.8690680    -2.3102850    -1.2326462
H           0.8019534    -2.3321998    -2.3236970
H          -0.0437108    -1.8782065    -0.8190589
H           0.9605311    -3.3399800    -0.8613610
O           4.7846247    -1.1351651    -0.8783301
18
056_C7H7NO3_0-2-7-8 (165,) energy =    -551.3880410
N           1.8729244    -1.7423714    -0.9196330
H           2.7687650    -1.8692317    -1.3808392
C           1.8594326    -0.9786023     0.2011364
C           5.3603157     1.3014363     1.1229542
H           6.3042265     1.8106739     1.2839990
O           5.4702826     0.3285420     0.2025190
C           4.3820755    -0.4655374    -0.1985937
C           3.1291690    -0.2116536     0.4953905
C           3.0566825     0.7960045     1.4180262
H           2.0972918     0.9611475     1.8995634
C           4.1947233     1.5844277     1.7507060
H           4.1454333     2.3815686     2.4823870
O           0.8756468    -0.8355196     0.9270054
C           0.7293418    -2.5438537    -1.3132215
H           0.6108009    -2.5135242    -2.4009039
H          -0.1600247    -2.1294409    -0.8366681
H           0.8381902    -3.5909030    -1.0004848
O           4.6072601    -1.2753758    -1.0775486
18
056_C7H7NO3_0-2-7-8 (180,) energy =    -551.3887542
N           1.9669394    -1.7886562    -0.8009045
H           2.8794641    -1.9454514    -1.2178762
C           1.8730464    -0.8254710     0.1477805
C           5.4170457     1.3071952     1.2453045
H           6.3698937     1.7841596     1.4474286
O           5.5253711     0.3572142     0.3014216
C           4.4314448    -0.4078181    -0.1388427
C           3.1577177    -0.1071733     0.4963400
C           3.0902597     0.8702283     1.4516564
H           2.1179543     1.0616178     1.8961741
C           4.2425487     1.6055962     1.8489136
H           4.1958672     2.3792472     2.6055412
O           0.8270771    -0.5211279     0.7219512
C           0.8148716    -2.5532728    -1.2387620
H           0.4559876    -2.2160684    -2.2199292
H           0.0157698    -2.4168169    -0.5088950
H           1.0719807    -3.6154445    -1.3068450
O           4.6711156    -1.2325243    -1.0002492
