15
265_C6H7NO_0-4-11-9 (-165,) energy =    -362.8197116
C           1.6116694    -1.2806632    -0.4550643
H           2.1132140    -1.5936485    -1.3754647
H           0.5289761    -1.3614085    -0.5674849
H           1.9578214    -1.9175488     0.3654798
O           1.8591595     0.0984416    -0.1702005
C           5.6803917     1.2087738     0.7379541
H           6.7092123     1.4689255     0.9646413
C           4.6241229     2.0891650     1.0125718
H           4.8168272     3.0573568     1.4672025
C           3.3264601     1.7101048     0.7102507
H           2.4709344     2.3469794     0.9066152
C           3.1343957     0.4467597     0.1200439
N           4.1193279    -0.4082368    -0.1344249
C           5.3693472    -0.0204563     0.1716643
H           6.1528132    -0.7427585    -0.0516726
15
265_C6H7NO_0-4-11-9 (-150,) energy =    -362.8175477
C           1.5984356    -1.2694674    -0.4174615
H           2.1399402    -1.7532035    -1.2350282
H           0.5220856    -1.3319713    -0.5885336
H           1.8595514    -1.7672878     0.5231232
O           1.8927428     0.1285707    -0.3485116
C           5.6777621     1.2009427     0.7494832
H           6.6978925     1.4514867     1.0219131
C           4.6089498     2.0539226     1.0532706
H           4.7804128     2.9886089     1.5807180
C           3.3217261     1.6851062     0.6920746
H           2.4550614     2.2989017     0.9115505
C           3.1569439     0.4687247     0.0069040
N           4.1546317    -0.3663481    -0.2672262
C           5.3916015     0.0063969     0.0986700
H           6.1865378    -0.6972017    -0.1434559
15
265_C6H7NO_0-4-11-9 (-135,) energy =    -362.8147617
C           1.5762541    -1.2423862    -0.3676401
H           2.2481130    -1.8898312    -0.9373532
H           0.5585925    -1.3223118    -0.7543116
H           1.5947217    -1.5402775     0.6883746
O           1.9383131     0.1345514    -0.5052616
C           5.6821046     1.1981702     0.7496728
H           6.6931083     1.4474914     1.0555743
C           4.5931864     2.0034578     1.0993974
H           4.7361802     2.8995254     1.6976477
C           3.3181549     1.6335463     0.6906899
H           2.4358458     2.2120326     0.9415131
C           3.1888498     0.4723889    -0.0867385
N           4.2090614    -0.3193116    -0.4071475
C           5.4303277     0.0487145     0.0058603
H           6.2447288    -0.6171874    -0.2753807
15
265_C6H7NO_0-4-11-9 (-120,) energy =    -362.8121884
C           1.5528923    -1.2035275    -0.3064619
H           2.2776501    -1.9571787    -0.6300520
H           0.6045594    -1.3526808    -0.8263462
H           1.3942103    -1.2878656     0.7771179
O           1.9926637     0.1127444    -0.6485755
C           5.6883011     1.1865995     0.7439940
H           6.6896662     1.4393779     1.0778812
C           4.5773489     1.9386312     1.1347318
H           4.6915554     2.7956944     1.7932695
C           3.3159924     1.5653889     0.6829058
H           2.4169347     2.1062324     0.9575664
C           3.2250440     0.4596079    -0.1731872
N           4.2691111    -0.2814751    -0.5372283
C           5.4749624     0.0858629    -0.0834889
H           6.3104675    -0.5357851    -0.4017610
15
265_C6H7NO_0-4-11-9 (-105,) energy =    -362.8099835
C           1.5306385    -1.1514162    -0.2511281
H           2.2268544    -1.9852971    -0.3976345
H           0.6054718    -1.3447434    -0.7978497
H           1.3075427    -1.0454524     0.8196268
O           2.0662241     0.0609801    -0.7826969
C           5.6842483     1.1926990     0.7663839
H           6.6686550     1.4614935     1.1365467
C           4.5394106     1.8810472     1.1737491
H           4.6089040     2.7040192     1.8802203
C           3.3027437     1.4913309     0.6680040
H           2.3798062     1.9890674     0.9458370
C           3.2708897     0.4332688    -0.2489226
N           4.3488407    -0.2466670    -0.6328459
C           5.5303913     0.1373618    -0.1315236
H           6.3959892    -0.4310847    -0.4683058
15
265_C6H7NO_0-4-11-9 (-90,) energy =    -362.8084356
C           1.4891984    -1.0940993    -0.2097524
H           2.1179282    -1.9930333    -0.1800633
H           0.5786598    -1.3052630    -0.7744840
H           1.2222161    -0.8057211     0.8167401
O           2.1502667    -0.0305623    -0.8922920
C           5.6861192     1.1978367     0.7729433
H           6.6517568     1.4937841     1.1708856
C           4.5052935     1.8105742     1.1984782
H           4.5269159     2.6029395     1.9420529
C           3.2960817     1.3919602     0.6519950
H           2.3492915     1.8399223     0.9353097
C           3.3245393     0.3751960    -0.3114688
N           4.4376978    -0.2286654    -0.7177129
C           5.5943515     0.1876402    -0.1829034
H           6.4905714    -0.3170676    -0.5403339
15
265_C6H7NO_0-4-11-9 (-75,) energy =    -362.8077885
C           1.4389707    -1.0365429    -0.1846044
H           1.9772009    -1.9664957     0.0403714
H           0.5595968    -1.2643770    -0.7906350
H           1.1171062    -0.5711578     0.7572409
O           2.2458211    -0.1559865    -0.9624308
C           5.7007935     1.2173840     0.7607105
H           6.6489708     1.5536314     1.1684688
C           4.4865608     1.7405680     1.2122573
H           4.4640534     2.5060827     1.9834340
C           3.3027615     1.2758723     0.6495912
H           2.3354491     1.6658412     0.9498305
C           3.3857043     0.2932275    -0.3477022
N           4.5317609    -0.2185566    -0.7856926
C           5.6639090     0.2478061    -0.2389821
H           6.5868502    -0.1831981    -0.6238021
15
265_C6H7NO_0-4-11-9 (-60,) energy =    -362.8080327
C           1.3957921    -0.9719760    -0.1592471
H           1.8558372    -1.8355035     0.3378202
H           0.6118064    -1.3190385    -0.8353390
H           0.9456725    -0.3183110     0.5996343
O           2.3437146    -0.2868403    -0.9726629
C           5.7253116     1.2510078     0.7577256
H           6.6584897     1.6310416     1.1613252
C           4.4893452     1.6814965     1.2461808
H           4.4330282     2.4201027     2.0415545
C           3.3249351     1.1652309     0.6886364
H           2.3464350     1.4938300     1.0232730
C           3.4471385     0.2159458    -0.3382838
N           4.6154586    -0.2001678    -0.8179164
C           5.7266115     0.3183988    -0.2770006
H           6.6658654    -0.0386967    -0.6966729
15
265_C6H7NO_0-4-11-9 (-45,) energy =    -362.8093426
C           1.3553058    -0.8940543    -0.1634532
H           1.7335869    -1.5235761     0.6512062
H           0.7281835    -1.4942544    -0.8258535
H           0.7446083    -0.0850280     0.2597069
O           2.4192718    -0.4013115    -0.9712752
C           5.7441268     1.2691903     0.7388243
H           6.6663476     1.6847172     1.1321895
C           4.5015351     1.6050853     1.2794367
H           4.4274260     2.3050335     2.1076785
C           3.3494784     1.0469349     0.7352251
H           2.3682957     1.3028013     1.1204582
C           3.4934259     0.1452210    -0.3319919
N           4.6694583    -0.1751598    -0.8665877
C           5.7646511     0.3825160    -0.3362562
H           6.7087948     0.0986441    -0.7989860
15
265_C6H7NO_0-4-11-9 (-30,) energy =    -362.8112439
C           1.3148346    -0.8458029    -0.1620981
H           1.5811329    -1.3150571     0.7930962
H           0.7245570    -1.5434512    -0.7593577
H           0.7107673     0.0508369     0.0323150
O           2.4716455    -0.5519977    -0.9351067
C           5.7334450     1.2855774     0.7190591
H           6.6423943     1.7432761     1.0959197
C           4.4896658     1.5451733     1.2955202
H           4.3997534     2.2255146     2.1384393
C           3.3529920     0.9345014     0.7739319
H           2.3741713     1.1320414     1.1961168
C           3.5164568     0.0594757    -0.3134985
N           4.6947632    -0.1880725    -0.8833563
C           5.7713869     0.4169171    -0.3710305
H           6.7166738     0.1895728    -0.8619439
15
265_C6H7NO_0-4-11-9 (-15,) energy =    -362.8126841
C           1.2972129    -0.8089168    -0.1703258
H           1.4402007    -1.1995550     0.8453702
H           0.6885603    -1.5082671    -0.7461992
H           0.7757814     0.1562006    -0.1160447
O           2.5304342    -0.7049950    -0.8664421
C           5.7292291     1.3159763     0.6917761
H           6.6241909     1.8192182     1.0429685
C           4.4910103     1.5134128     1.3016598
H           4.3905134     2.1868222     2.1489546
C           3.3704796     0.8452989     0.8144998
H           2.3995676     0.9939534     1.2719436
C           3.5458142    -0.0176511    -0.2809883
N           4.7212766    -0.2104641    -0.8799127
C           5.7798745     0.4451360    -0.3969929
H           6.7218729     0.2609729    -0.9119000
15
265_C6H7NO_0-4-11-9 (0,) energy =    -362.8131985
C           1.2890711    -0.7738643    -0.1966069
H           1.2943636    -1.1016631     0.8513284
H           0.6709047    -1.4556609    -0.7830114
H           0.8674097     0.2381851    -0.2565038
O           2.5847912    -0.8368301    -0.7720616
C           5.7141569     1.3645263     0.6784218
H           6.5926287     1.9132565     1.0019315
C           4.4850608     1.5042799     1.3211452
H           4.3760741     2.1733623     2.1708151
C           3.3850730     0.7787395     0.8696205
H           2.4240416     0.8773738     1.3596327
C           3.5704442    -0.0745902    -0.2318895
N           4.7395216    -0.2190917    -0.8570835
C           5.7781597     0.4874381    -0.4048228
H           6.7148097     0.3420339    -0.9414490
15
265_C6H7NO_0-4-11-9 (15,) energy =    -362.8126841
C           1.2759440    -0.7423688    -0.2254265
H           1.1428038    -0.9927942     0.8356342
H           0.6572919    -1.4104499    -0.8271876
H           0.9624702     0.2960087    -0.3933160
O           2.6115438    -0.9589848    -0.6560860
C           5.7063015     1.3877338     0.6322923
H           6.5750073     1.9731538     0.9154489
C           4.4994659     1.4869673     1.3235450
H           4.4003138     2.1561480     2.1743412
C           3.4122418     0.7145633     0.9227733
H           2.4698730     0.7738662     1.4542309
C           3.5833958    -0.1353377    -0.1835232
N           4.7330417    -0.2473639    -0.8493764
C           5.7621964     0.5004678    -0.4428735
H           6.6832521     0.3818495    -1.0120778
15
265_C6H7NO_0-4-11-9 (30,) energy =    -362.8112439
C           1.2759555    -0.7240952    -0.2628910
H           1.0036369    -0.8662205     0.7917657
H           0.6805089    -1.4055172    -0.8736019
H           1.0615821     0.3116528    -0.5540603
O           2.6344626    -1.0617806    -0.5129000
C           5.6910899     1.4181677     0.6092448
H           6.5483313     2.0377738     0.8519944
C           4.5114120     1.4770505     1.3519283
H           4.4254240     2.1451616     2.2049779
C           3.4406104     0.6601379     1.0011556
H           2.5191352     0.6781007     1.5720443
C           3.5945745    -0.1851220    -0.1109260
N           4.7185991    -0.2627158    -0.8215381
C           5.7369115     0.5248354    -0.4604092
H           6.6383639     0.4347306    -1.0649857
15
265_C6H7NO_0-4-11-9 (45,) energy =    -362.8093426
C           1.2949690    -0.7051674    -0.3198931
H           0.9177982    -0.6272813     0.7088031
H           0.7209787    -1.4717146    -0.8445238
H           1.1641011     0.2593775    -0.8254531
O           2.6526057    -1.1318641    -0.3662263
C           5.6888500     1.4422309     0.5955051
H           6.5378905     2.0868727     0.7991150
C           4.5481010     1.4592778     1.4001927
H           4.4874467     2.1170980     2.2633253
C           3.4891319     0.6096845     1.0973583
H           2.5973430     0.5856725     1.7143896
C           3.6102793    -0.2206507    -0.0289756
N           4.6958271    -0.2577430    -0.7981954
C           5.7083586     0.5587311    -0.4822047
H           6.5802591     0.5010374    -1.1322588
15
265_C6H7NO_0-4-11-9 (60,) energy =    -362.8080327
C           1.3017484    -0.6775639    -0.4030876
H           0.9119967    -0.2128220     0.5122783
H           0.6832824    -1.5428693    -0.6499327
H           1.2536767     0.0496904    -1.2235677
O           2.6269794    -1.1737194    -0.2381485
C           5.6600931     1.4551768     0.5886297
H           6.5031319     2.1174231     0.7584967
C           4.5744442     1.4150457     1.4668541
H           4.5530949     2.0441852     2.3528889
C           3.5234408     0.5437209     1.2033739
H           2.6749887     0.4651619     1.8752215
C           3.5964036    -0.2514032     0.0487765
N           4.6246512    -0.2289726    -0.7940602
C           5.6342184     0.6076451    -0.5165578
H           6.4628843     0.5967808    -1.2229819
15
265_C6H7NO_0-4-11-9 (75,) energy =    -362.8077885
C           1.3244326    -0.6779755    -0.4815785
H           0.9268911     0.0244096     0.2639876
H           0.6433304    -1.5265860    -0.5734482
H           1.4024056    -0.1669767    -1.4500404
O           2.5839790    -1.2147415    -0.0855697
C           5.6254738     1.4531630     0.5654241
H           6.4649245     2.1298154     0.6912546
C           4.6031171     1.3756138     1.5145028
H           4.6284922     1.9912272     2.4098290
C           3.5548778     0.4865001     1.3033447
H           2.7484396     0.3727936     2.0207294
C           3.5723764    -0.2912499     0.1363559
N           4.5343969    -0.2268501    -0.7788345
C           5.5421987     0.6288264    -0.5545586
H           6.3196939     0.6531873    -1.3165160
15
265_C6H7NO_0-4-11-9 (90,) energy =    -362.8084356
C           1.3558138    -0.6764977    -0.5556143
H           0.9185986     0.1449045     0.0294242
H           0.6408368    -1.4999556    -0.6132134
H           1.5828262    -0.3177613    -1.5675625
O           2.5233967    -1.1987723     0.0752251
C           5.6018762     1.4615799     0.5545054
H           6.4452982     2.1401591     0.6355536
C           4.6488084     1.3612487     1.5706114
H           4.7310207     1.9638642     2.4713388
C           3.5897388     0.4725777     1.4134212
H           2.8272176     0.3436582     2.1745320
C           3.5367699    -0.2892531     0.2388181
N           4.4273552    -0.1962815    -0.7445513
C           5.4424936     0.6630706    -0.5766629
H           6.1618814     0.7119998    -1.3926181
15
265_C6H7NO_0-4-11-9 (105,) energy =    -362.8099835
C           1.3842911    -0.6932277    -0.6306117
H           0.9077062     0.2065118    -0.2172698
H           0.6573818    -1.5073274    -0.6631404
H           1.7464623    -0.4813598    -1.6432725
O           2.4492240    -1.1381265     0.2104029
C           5.6003222     1.4554419     0.5487729
H           6.4588889     2.1182124     0.5926537
C           4.7115298     1.3421661     1.6200524
H           4.8580737     1.9238854     2.5263316
C           3.6264043     0.4780032     1.5072454
H           2.9044151     0.3466118     2.3061285
C           3.4914786    -0.2573611     0.3230579
N           4.3170879    -0.1472598    -0.7151786
C           5.3526652     0.6937875    -0.5923651
H           6.0160389     0.7584689    -1.4535070
15
265_C6H7NO_0-4-11-9 (120,) energy =    -362.8121884
C           1.4017539    -0.7303558    -0.6983515
H           0.9104103     0.2268189    -0.4773621
H           0.6621891    -1.5331295    -0.6768990
H           1.8702869    -0.6818145    -1.6863268
O           2.3628579    -1.0462875     0.3113408
C           5.6083650     1.4368650     0.5367022
H           6.4869726     2.0739804     0.5522741
C           4.7772605     1.3127457     1.6530814
H           4.9897859     1.8619961     2.5665523
C           3.6601895     0.4877645     1.5753945
H           2.9756922     0.3568600     2.4064074
C           3.4378619    -0.2067010     0.3786459
N           4.2057261    -0.0830439    -0.7015852
C           5.2709503     0.7245793    -0.6124986
H           5.8831822     0.8019581    -1.5097148
15
265_C6H7NO_0-4-11-9 (135,) energy =    -362.8147617
C           1.4266697    -0.7740780    -0.7555019
H           1.0241185     0.2461798    -0.7911917
H           0.6110024    -1.4864176    -0.6183981
H           1.9591156    -0.9850516    -1.6867075
O           2.2800938    -0.9355216     0.3809780
C           5.6053285     1.4385404     0.5505769
H           6.4995203     2.0535829     0.5535808
C           4.8249073     1.2779807     1.7002297
H           5.0947101     1.7770379     2.6272876
C           3.6841535     0.4876645     1.6397101
H           3.0349963     0.3361951     2.4950930
C           3.3847841    -0.1410596     0.4213156
N           4.1005192     0.0205000    -0.6885965
C           5.1916973     0.7958144    -0.6129134
H           5.7584644     0.9052087    -1.5362653
15
265_C6H7NO_0-4-11-9 (150,) energy =    -362.8175477
C           1.4513868    -0.8090975    -0.7987490
H           1.2265183     0.2146271    -1.1183241
H           0.5261561    -1.3447320    -0.5779652
H           2.0001857    -1.3156806    -1.5973955
O           2.1912041    -0.8058750     0.4254003
C           5.6025280     1.4364844     0.5543863
H           6.5151463     2.0236333     0.5480331
C           4.8705512     1.2348939     1.7315831
H           5.2003232     1.6739482     2.6695172
C           3.7053289     0.4841082     1.6867426
H           3.0919218     0.3049992     2.5629127
C           3.3275009    -0.0652707     0.4491545
N           3.9940921     0.1362600    -0.6835046
C           5.1148083     0.8729793    -0.6190602
H           5.6392891     1.0161277    -1.5624732
15
265_C6H7NO_0-4-11-9 (165,) energy =    -362.8197116
C           1.4702368    -0.8378781    -0.8217880
H           1.3065348     0.1215113    -1.3232963
H           0.5155143    -1.3192791    -0.6023776
H           2.0750717    -1.4742579    -1.4743517
O           2.0979255    -0.6491066     0.4489209
C           5.6110672     1.4258141     0.5581802
H           6.5483520     1.9725508     0.5475116
C           4.9086273     1.1984305     1.7502719
H           5.2907342     1.5736399     2.6960158
C           3.7130760     0.4996737     1.7127310
H           3.1246216     0.3003963     2.6016081
C           3.2661996     0.0340951     0.4618068
N           3.9085545     0.2516463    -0.6809601
C           5.0639000     0.9358375    -0.6203656
H           5.5659773     1.0945127    -1.5733396
15
265_C6H7NO_0-4-11-9 (180,) energy =    -362.8205110
C           1.4902315    -0.8660635    -0.8259612
H           1.3446692     0.0054648    -1.4715147
H           0.5329892    -1.3447881    -0.6119249
H           2.1618288    -1.5662164    -1.3321507
O           2.0111703    -0.4821505     0.4488043
C           5.6259842     1.4074071     0.5623009
H           6.5889764     1.9074574     0.5535955
C           4.9409735     1.1574762     1.7603844
H           5.3656184     1.4627366     2.7131174
C           3.7141250     0.5161637     1.7217683
H           3.1408701     0.2971275     2.6159153
C           3.2108544     0.1426794     0.4610117
N           3.8430632     0.3696377    -0.6853935
C           5.0322354     0.9935400    -0.6225372
H           5.5237894     1.1641944    -1.5789151
