32
123_C17H13NO_8-7-15-16 (-165,) energy =    -785.6225982
C           5.7341561     1.7152050     1.1911191
H           6.5109316     2.4743949     1.1965682
C           5.9494762     0.4721167     1.7793538
H           6.8997901     0.2357525     2.2494288
C           4.9310814    -0.4764487     1.7422706
H           5.1003059    -1.4635624     2.1628099
C           3.6910525    -0.2242910     1.1352085
C           3.4447683     1.0633133     0.5817048
C           4.5054706     1.9929814     0.6017122
H           4.3520772     2.9991461     0.2248852
C          -0.0829492     2.3592885    -1.5463023
H          -0.9328272     2.7211487    -2.1136475
C           1.1782297     3.0412221    -1.7495551
N           2.2303750     2.5061421    -0.9755116
H           3.1192252     2.9378820    -1.1913102
C           2.1708165     1.4540826    -0.0867938
C           0.9558442     0.8187571     0.0387116
H           0.8314316     0.0060994     0.7360176
C          -0.1670490     1.2968426    -0.6926382
H          -1.1193907     0.7890031    -0.5589938
O           1.4028449     3.9808439    -2.5084104
C           1.1318868    -3.6856151     0.9754194
H           0.5018726    -4.5700934     0.9373080
C           1.7013008    -3.1782301    -0.1954620
H           1.5199594    -3.6704275    -1.1472265
C           2.5074691    -2.0422872    -0.1489010
H           2.9487456    -1.6515249    -1.0614326
C           2.7580348    -1.3931808     1.0702651
C           2.1945433    -1.9189260     2.2416637
H           2.3880301    -1.4284099     3.1921073
C           1.3813936    -3.0537539     2.1938524
H           0.9465476    -3.4434987     3.1104195
32
123_C17H13NO_8-7-15-16 (-150,) energy =    -785.6263727
C           5.6934419     1.7650746     1.2842928
H           6.4539743     2.5397170     1.3209578
C           5.9124080     0.5251427     1.8803194
H           6.8508705     0.3107429     2.3837756
C           4.9204326    -0.4499922     1.8094055
H           5.1017623    -1.4331573     2.2341670
C           3.6969758    -0.2257973     1.1585755
C           3.4527644     1.0545490     0.5943588
C           4.4809521     2.0159683     0.6496032
H           4.3027192     3.0109180     0.2517048
C          -0.0677005     2.3061986    -1.5414313
H          -0.9204867     2.6563236    -2.1118573
C           1.2297925     2.8250367    -1.9249614
N           2.2843427     2.3174027    -1.1340404
H           3.1978466     2.6251475    -1.4452235
C           2.1860058     1.4264182    -0.0894969
C           0.9360341     0.9431910     0.2168677
H           0.8055205     0.2564815     1.0403403
C          -0.1889990     1.4054477    -0.5210435
H          -1.1724195     1.0245218    -0.2555479
O           1.4777633     3.6108449    -2.8357652
C           1.1403021    -3.6802699     0.8818093
H           0.5099701    -4.5626739     0.8132049
C           1.6148477    -3.0644342    -0.2793080
H           1.3597343    -3.4702123    -1.2545966
C           2.4208152    -1.9310180    -0.1940670
H           2.7908336    -1.4599006    -1.1001219
C           2.7695976    -1.3930968     1.0551030
C           2.2977579    -2.0265140     2.2145005
H           2.5618187    -1.6207818     3.1877369
C           1.4841891    -3.1583076     2.1288394
H           1.1215034    -3.6307159     3.0379011
32
123_C17H13NO_8-7-15-16 (-135,) energy =    -785.6283414
C           5.6480991     1.8116574     1.3740311
H           6.3858222     2.6055165     1.4477962
C           5.8804758     0.5691292     1.9616579
H           6.8083179     0.3753085     2.4925669
C           4.9202568    -0.4340090     1.8512578
H           5.1164099    -1.4150181     2.2744013
C           3.7115461    -0.2342120     1.1648739
C           3.4633783     1.0405232     0.5966043
C           4.4511545     2.0369696     0.7002783
H           4.2521356     3.0228493     0.2886317
C          -0.0590398     2.2780207    -1.5232660
H          -0.9145915     2.6277301    -2.0898279
C           1.2486376     2.6230996    -2.0450998
N           2.3071328     2.1275786    -1.2498846
H           3.2273966     2.3256098    -1.6264574
C           2.1956528     1.3933774    -0.0931908
C           0.9361418     1.0838148     0.3571180
H           0.8121500     0.5188921     1.2710136
C          -0.1919035     1.5410375    -0.3794494
H          -1.1857514     1.2963515    -0.0117762
O           1.5000602     3.2627661    -3.0628176
C           1.1468798    -3.6746239     0.8057876
H           0.5124339    -4.5522268     0.7164962
C           1.5618196    -2.9884324    -0.3382911
H           1.2562448    -3.3342891    -1.3220894
C           2.3730025    -1.8611493    -0.2258537
H           2.6981959    -1.3388467    -1.1209311
C           2.7882947    -1.3992706     1.0336329
C           2.3725395    -2.1021749     2.1750603
H           2.6824158    -1.7534408     3.1568296
C           1.5545897    -3.2277451     2.0628724
H           1.2364789    -3.7534546     2.9592812
32
123_C17H13NO_8-7-15-16 (-120,) energy =    -785.6284913
C           5.6082855     1.8538101     1.4591278
H           6.3227731     2.6641420     1.5721635
C           5.8607966     0.6016256     2.0189032
H           6.7823077     0.4195623     2.5649395
C           4.9314267    -0.4245260     1.8658723
H           5.1440223    -1.4084420     2.2740204
C           3.7317291    -0.2376784     1.1590671
C           3.4732075     1.0395886     0.6066081
C           4.4216070     2.0646160     0.7619648
H           4.2035495     3.0487431     0.3553449
C          -0.0445937     2.2459454    -1.5306055
H          -0.8986597     2.5844058    -2.1062308
C           1.2549875     2.3892230    -2.1575361
N           2.3128693     1.9237126    -1.3419541
H           3.2288221     1.9969482    -1.7714002
C           2.2012363     1.3782747    -0.0865217
C           0.9526708     1.2686363     0.4695467
H           0.8397857     0.8543539     1.4630620
C          -0.1744145     1.7089005    -0.2800345
H          -1.1630104     1.6182476     0.1641573
O           1.4999157     2.8479829    -3.2697991
C           1.1587468    -3.6622730     0.7208464
H           0.5194606    -4.5341315     0.6119570
C           1.5271727    -2.9166942    -0.4013212
H           1.1807306    -3.2099601    -1.3886157
C           2.3449064    -1.7968154    -0.2633707
H           2.6352043    -1.2315125    -1.1441052
C           2.8130046    -1.4009536     1.0001983
C           2.4409369    -2.1627634     2.1193858
H           2.7866954    -1.8640119     3.1055727
C           1.6182165    -3.2812540     1.9819960
H           1.3348677    -3.8523787     2.8621544
32
123_C17H13NO_8-7-15-16 (-105,) energy =    -785.6274525
C           5.5510692     1.8898217     1.5637618
H           6.2406010     2.7141935     1.7215313
C           5.8366631     0.6198441     2.0652795
H           6.7596549     0.4398816     2.6096551
C           4.9384314    -0.4247386     1.8614441
H           5.1742856    -1.4175122     2.2337539
C           3.7372462    -0.2393738     1.1555175
C           3.4545014     1.0508068     0.6502472
C           4.3640719     2.0978958     0.8654928
H           4.1207416     3.0895129     0.4930316
C          -0.0727129     2.2017905    -1.5049636
H          -0.9288528     2.5171006    -2.0906207
C           1.1959309     2.1289043    -2.2041169
N           2.2593801     1.7097101    -1.3700320
H           3.1568403     1.6513045    -1.8391807
C           2.1744514     1.3823129    -0.0394797
C           0.9594786     1.4820372     0.5847638
H           0.8736717     1.2425882     1.6371685
C          -0.1721477     1.8914755    -0.1776447
H          -1.1374131     1.9627670     0.3183996
O           1.4118353     2.3843838    -3.3853503
C           1.1711839    -3.6612853     0.6521180
H           0.5313923    -4.5307992     0.5285175
C           1.4995420    -2.8686200    -0.4493583
H           1.1220173    -3.1218917    -1.4363056
C           2.3184836    -1.7515825    -0.2925568
H           2.5779106    -1.1533923    -1.1605954
C           2.8268754    -1.4045726     0.9697722
C           2.4929001    -2.2137716     2.0682328
H           2.8666489    -1.9524181     3.0547331
C           1.6708582    -3.3295687     1.9122148
H           1.4180344    -3.9369247     2.7772873
32
123_C17H13NO_8-7-15-16 (-90,) energy =    -785.6259916
C           5.5119828     1.9048236     1.6635943
H           6.1783719     2.7369038     1.8722751
C           5.8296718     0.6161508     2.0923376
H           6.7544139     0.4298617     2.6316578
C           4.9579747    -0.4374635     1.8285655
H           5.2110763    -1.4414862     2.1568950
C           3.7554945    -0.2436142     1.1267269
C           3.4466151     1.0633101     0.6840552
C           4.3229312     2.1206833     0.9705937
H           4.0559761     3.1237665     0.6490443
C          -0.0870059     2.1826694    -1.4839488
H          -0.9457746     2.4785112    -2.0759147
C           1.1286140     1.8810615    -2.2159180
N           2.1995103     1.5049067    -1.3712687
H           3.0655306     1.3097122    -1.8618176
C           2.1635024     1.4006245    -0.0029658
C           1.0019477     1.7169383     0.6485778
H           0.9567563     1.6556522     1.7287581
C          -0.1343627     2.1029496    -0.1209118
H          -1.0593478     2.3430973     0.3983459
O           1.2969911     1.9264725    -3.4311238
C           1.2034096    -3.6719416     0.5808573
H           0.5655378    -4.5418125     0.4500436
C           1.5442600    -2.8793622    -0.5161961
H           1.1789675    -3.1328910    -1.5076404
C           2.3610628    -1.7613964    -0.3501707
H           2.6299820    -1.1669545    -1.2169637
C           2.8533248    -1.4125331     0.9174199
C           2.5074754    -2.2233016     2.0117705
H           2.8700991    -1.9610613     3.0021116
C           1.6887711    -3.3397898     1.8466545
H           1.4270218    -3.9474771     2.7088417
32
123_C17H13NO_8-7-15-16 (-75,) energy =    -785.6274330
C           5.5411705     1.7896440     1.5136598
H           6.2092668     2.6249745     1.7029780
C           5.9591065     0.4799483     1.7462544
H           6.9560046     0.2816529     2.1304103
C           5.0931240    -0.5805617     1.4882490
H           5.4151186    -1.5990425     1.6856612
C           3.7932680    -0.3711909     0.9980280
C           3.3713683     0.9615979     0.7766754
C           4.2573547     2.0205927     1.0235526
H           3.9265311     3.0352688     0.8204809
C          -0.3612637     1.8252825    -1.1586210
H          -1.2835310     2.0203373    -1.6941467
C           0.7066015     1.2021607    -1.9191197
N           1.8744700     0.9839518    -1.1518562
H           2.6292286     0.5381771    -1.6617418
C           2.0493668     1.2949330     0.1704260
C           1.0126865     1.8756043     0.8543068
H           1.1303761     2.1216957     1.9026717
C          -0.2036004     2.1428633     0.1605272
H          -1.0247156     2.6058363     0.7032333
O           0.6819066     0.8747260    -3.1014740
C           1.3633357    -3.8484293     0.2530075
H           0.7565076    -4.7300555     0.0658697
C           2.6543846    -3.7604541    -0.2693832
H           3.0573444    -4.5718805    -0.8694623
C           3.4305229    -2.6269386    -0.0297005
H           4.4305949    -2.5586402    -0.4499237
C           2.9293555    -1.5572861     0.7309966
C           1.6299857    -1.6603041     1.2530497
H           1.2292390    -0.8516547     1.8553146
C           0.8558055    -2.7953032     1.0159881
H          -0.1459654    -2.8576505     1.4324519
32
123_C17H13NO_8-7-15-16 (-60,) energy =    -785.6290336
C           5.4989189     1.7939783     1.6031827
H           6.1463213     2.6334018     1.8402791
C           5.9402014     0.4840077     1.7863065
H           6.9341448     0.2886469     2.1793750
C           5.0982049    -0.5804332     1.4716307
H           5.4327039    -1.5998157     1.6415476
C           3.8031146    -0.3754733     0.9681068
C           3.3619969     0.9574861     0.7805376
C           4.2210093     2.0211950     1.0976665
H           3.8774815     3.0367705     0.9236857
C          -0.3816686     1.8542941    -1.1162415
H          -1.3116870     2.0536389    -1.6365323
C           0.5807956     1.0192398    -1.8115634
N           1.7663872     0.8090306    -1.0709082
H           2.4441449     0.2146054    -1.5351477
C           2.0438108     1.2978085     0.1782302
C           1.1042729     2.0803253     0.8020649
H           1.2993922     2.4656516     1.7953936
C          -0.1202975     2.3550490     0.1276078
H          -0.8638044     2.9739980     0.6248033
O           0.4586976     0.5179488    -2.9249891
C           1.4029250    -3.8632099     0.1798810
H           0.8020920    -4.7468127    -0.0167064
C           2.6995511    -3.7687788    -0.3268157
H           3.1129444    -4.5771310    -0.9238848
C           3.4682440    -2.6321732    -0.0757775
H           4.4731848    -2.5589963    -0.4834834
C           2.9528040    -1.5667033     0.6808685
C           1.6468069    -1.6757410     1.1860918
H           1.2348583    -0.8674263     1.7825152
C           0.8808441    -2.8133796     0.9382035
H          -0.1262252    -2.8804723     1.3407522
32
123_C17H13NO_8-7-15-16 (-45,) energy =    -785.6295199
C           5.4416211     1.7901429     1.6915596
H           6.0652871     2.6330527     1.9753767
C           5.9079828     0.4834353     1.8315785
H           6.8983447     0.2925076     2.2355319
C           5.0914777    -0.5827014     1.4620021
H           5.4388356    -1.6018255     1.6056977
C           3.8013524    -0.3834863     0.9441402
C           3.3408924     0.9471662     0.7784086
C           4.1719495     2.0119527     1.1660695
H           3.8206305     3.0279158     1.0141235
C          -0.3861429     1.9066961    -1.1262309
H          -1.3122895     2.1224373    -1.6467989
C           0.4642903     0.8887576    -1.7150032
N           1.6525961     0.6686407    -0.9827984
H           2.2482363    -0.0516898    -1.3756456
C           2.0248699     1.2932141     0.1791158
C           1.1902164     2.2540322     0.6985911
H           1.4523023     2.7514520     1.6240768
C          -0.0278142     2.5506842     0.0241053
H          -0.6868183     3.3067875     0.4449496
O           0.2509450     0.2484975    -2.7402136
C           1.4612596    -3.9057910     0.1305736
H           0.8750240    -4.7980260    -0.0706978
C           2.7410845    -3.7706128    -0.4080622
H           3.1560184    -4.5558948    -1.0340641
C           3.4914328    -2.6225155    -0.1512260
H           4.4841698    -2.5174686    -0.5813487
C           2.9718755    -1.5867015     0.6425353
C           1.6825376    -1.7366039     1.1797366
H           1.2695803    -0.9500607     1.8047468
C           0.9359541    -2.8855213     0.9266690
H          -0.0584424    -2.9846456     1.3532104
32
123_C17H13NO_8-7-15-16 (-30,) energy =    -785.6282362
C           5.3954769     1.7780766     1.7902831
H           6.0012158     2.6180011     2.1183291
C           5.8781606     0.4736072     1.8898097
H           6.8637863     0.2788139     2.3031892
C           5.0781986    -0.5847958     1.4684508
H           5.4303544    -1.6060062     1.5829129
C           3.7938058    -0.3804083     0.9384185
C           3.3227984     0.9504956     0.7909399
C           4.1352342     2.0049137     1.2476149
H           3.7893604     3.0250345     1.1189238
C          -0.3825684     1.9669837    -1.1436817
H          -1.3002332     2.1969965    -1.6730027
C           0.3516766     0.8003838    -1.5942042
N           1.5355286     0.5702589    -0.8585481
H           2.0493585    -0.2475196    -1.1664683
C           2.0043537     1.3064668     0.1999493
C           1.2809794     2.4151489     0.5788003
H           1.6041491     3.0108825     1.4224644
C           0.0742896     2.7284993    -0.1056649
H          -0.4943830     3.5985573     0.2147571
O           0.0507047     0.0472714    -2.5159087
C           1.5194643    -3.9395024     0.0953449
H           0.9498577    -4.8410035    -0.1120619
C           2.7591726    -3.7378596    -0.5114312
H           3.1596460    -4.4807513    -1.1957750
C           3.4880914    -2.5770099    -0.2470667
H           4.4507870    -2.4201260    -0.7268392
C           2.9842394    -1.5955382     0.6219021
C           1.7357310    -1.8126347     1.2285471
H           1.3378133    -1.0671918     1.9113642
C           1.0115393    -2.9739954     0.9677512
H           0.0482334    -3.1257532     1.4468031
32
123_C17H13NO_8-7-15-16 (-15,) energy =    -785.6251162
C           5.3526962     1.7610247     1.8895553
H           5.9428427     2.5931542     2.2628157
C           5.8430777     0.4574958     1.9528714
H           6.8210883     0.2520505     2.3787667
C           5.0532818    -0.5851682     1.4799524
H           5.4042272    -1.6096130     1.5656000
C           3.7773473    -0.3678510     0.9335761
C           3.3037297     0.9662993     0.8028337
C           4.1049792     2.0005745     1.3271318
H           3.7730082     3.0273293     1.2292179
C          -0.3760070     2.0195426    -1.1899982
H          -1.2847104     2.2543669    -1.7324328
C           0.2325668     0.7328796    -1.4596017
N           1.4111840     0.5051513    -0.7147471
H           1.8367959    -0.3924707    -0.9145526
C           1.9886120     1.3426391     0.2074662
C           1.3855834     2.5678602     0.4023945
H           1.7769629     3.2633733     1.1315424
C           0.1904997     2.8847766    -0.2978776
H          -0.2777897     3.8484977    -0.1108964
O          -0.1633419    -0.1226719    -2.2466569
C           1.5887255    -3.9731423     0.0525349
H           1.0421689    -4.8869311    -0.1626975
C           2.7635278    -3.6795995    -0.6396555
H           3.1366643    -4.3633112    -1.3971450
C           3.4627575    -2.5022853    -0.3660471
H           4.3758723    -2.2737274    -0.9095400
C           2.9910415    -1.5963057     0.5974971
C           1.8090861    -1.9065884     1.2913269
H           1.4388865    -1.2188676     2.0466011
C           1.1150605    -3.0841402     1.0203172
H           0.2021872    -3.3078878     1.5652882
32
123_C17H13NO_8-7-15-16 (0,) energy =    -785.6219572
C           5.2948948     1.7245187     2.0169901
H           5.9079006     2.5510693     2.3651216
C           5.6698888     0.4059765     2.2675900
H           6.5797292     0.1782900     2.8155726
C           4.8583131    -0.6194709     1.7973629
H           5.1387833    -1.6537963     1.9747872
C           3.6739411    -0.3751289     1.0816554
C           3.2746539     0.9685446     0.8356921
C           4.1253458     1.9874057     1.3174497
H           3.8670050     3.0247985     1.1505952
C          -0.3663738     2.0449150    -1.2515588
H          -1.2882035     2.2726325    -1.7744267
C          -0.0556788     0.6471193    -1.0446543
N           1.1609233     0.4379823    -0.3564978
H           1.3631390    -0.5444908    -0.2173366
C           2.0348452     1.3877278     0.1092475
C           1.6849794     2.7058066    -0.1110779
H           2.3127327     3.5182399     0.2219742
C           0.4802344     3.0148121    -0.7961569
H           0.2345933     4.0622325    -0.9563391
O          -0.7254806    -0.3207442    -1.3967928
C           1.7225540    -4.0202371    -0.1439629
H           1.2392024    -4.9440215    -0.4488038
C           2.5940848    -3.3649616    -1.0154632
H           2.7954620    -3.7793628    -1.9993394
C           3.2085984    -2.1735069    -0.6286466
H           3.8861668    -1.6639601    -1.3083996
C           2.9532486    -1.6154394     0.6348777
C           2.0836373    -2.2892543     1.5074907
H           1.8848412    -1.8694554     2.4898577
C           1.4699192    -3.4808063     1.1180583
H           0.7919745    -3.9849714     1.8011181
32
123_C17H13NO_8-7-15-16 (15,) energy =    -785.6251164
C           5.2163809     1.7548456     2.1406357
H           5.8260181     2.5860420     2.4834035
C           5.5299841     0.4461932     2.5049917
H           6.3899419     0.2357946     3.1345191
C           4.7364218    -0.5946934     2.0344867
H           4.9968013    -1.6219612     2.2730460
C           3.6230489    -0.3707418     1.2074305
C           3.2590785     0.9669541     0.8920403
C           4.1029643     2.0003247     1.3465639
H           3.8414870     3.0294114     1.1306199
C          -0.3178935     2.0311117    -1.2746396
H          -1.2444385     2.2677426    -1.7851768
C          -0.2334492     0.7309581    -0.6413720
N           1.0033075     0.5017680     0.0018193
H           1.0526912    -0.4055138     0.4503693
C           2.0818806     1.3495123     0.0592951
C           1.9362679     2.5866886    -0.5331641
H           2.7560720     3.2912436    -0.5433770
C           0.7288988     2.9060891    -1.2108701
H           0.6465629     3.8798105    -1.6884663
O          -1.1039815    -0.1346813    -0.6097408
C           1.8038524    -3.9623921    -0.3270872
H           1.3538652    -4.8726665    -0.7130473
C           2.3954669    -3.0474103    -1.2011895
H           2.4131321    -3.2473697    -2.2689420
C           2.9647362    -1.8743299    -0.7096983
H           3.4262285    -1.1663515    -1.3925156
C           2.9518022    -1.5947016     0.6673720
C           2.3630687    -2.5265134     1.5373728
H           2.3467314    -2.3217480     2.6047065
C           1.7889717    -3.6993044     1.0425909
H           1.3269726    -4.4034015     1.7290988
32
123_C17H13NO_8-7-15-16 (30,) energy =    -785.6282361
C           5.1516014     1.7695940     2.2284583
H           5.7294417     2.6078006     2.6073017
C           5.4932029     0.4608329     2.5673236
H           6.3461386     0.2606593     3.2097540
C           4.7394920    -0.5946252     2.0615753
H           5.0261971    -1.6179569     2.2864004
C           3.6359276    -0.3833280     1.2190634
C           3.2582749     0.9508047     0.9149451
C           4.0488979     2.0027032     1.4136115
H           3.7535487     3.0247409     1.2012633
C          -0.2804802     1.9795578    -1.3049957
H          -1.1997807     2.2120398    -1.8304070
C          -0.2912660     0.7942020    -0.4696016
N           0.9398717     0.5626734     0.1832061
H           0.9387743    -0.2690184     0.7627797
C           2.0838181     1.3127391     0.0761447
C           2.0385583     2.4384763    -0.7153866
H           2.9245072     3.0464995    -0.8441609
C           0.8392039     2.7547615    -1.4113071
H           0.8236093     3.6387302    -2.0448495
O          -1.2320578     0.0268841    -0.2866551
C           1.8053889    -3.9265882    -0.4076979
H           1.3502700    -4.8241274    -0.8169151
C           2.2958751    -2.9363517    -1.2621436
H           2.2298213    -3.0646567    -2.3390192
C           2.8717802    -1.7802407    -0.7396385
H           3.2556185    -1.0154921    -1.4090369
C           2.9695899    -1.5931008     0.6493815
C           2.4800337    -2.5992202     1.4981453
H           2.5449716    -2.4655167     2.5749351
C           1.8986550    -3.7548234     0.9734412
H           1.5147392    -4.5170966     1.6458588
32
123_C17H13NO_8-7-15-16 (45,) energy =    -785.6295199
C           5.0850715     1.7808747     2.3125297
H           5.6330228     2.6219163     2.7277459
C           5.4564998     0.4718518     2.6176319
H           6.3051999     0.2774540     3.2675299
C           4.7404322    -0.5918633     2.0738770
H           5.0516891    -1.6118624     2.2803757
C           3.6426913    -0.3879688     1.2220120
C           3.2516962     0.9443676     0.9354343
C           3.9907044     2.0069600     1.4826748
H           3.6703329     3.0236639     1.2768321
C          -0.2778277     1.9083010    -1.3123445
H          -1.1954691     2.1241646    -1.8477169
C          -0.3475489     0.8675221    -0.3033808
N           0.8847710     0.6486756     0.3524705
H           0.8529144    -0.0872283     1.0491940
C           2.0686894     1.2935765     0.1051568
C           2.0871504     2.2755690    -0.8566275
H           3.0128505     2.7896469    -1.0834431
C           0.8888575     2.5725038    -1.5654644
H           0.9126938     3.3455558    -2.3302568
O          -1.3332906     0.2079437     0.0124894
C           1.8086296    -3.8980313    -0.4695489
H           1.3514885    -4.7871315    -0.8947425
C           2.2210682    -2.8545813    -1.3012720
H           2.0923889    -2.9323575    -2.3773682
C           2.8002606    -1.7097720    -0.7577854
H           3.1239495    -0.9050262    -1.4115615
C           2.9806149    -1.5871034     0.6299904
C           2.5674665    -2.6460347     1.4551231
H           2.6921772    -2.5623560     2.5316968
C           1.9830929    -3.7901148     0.9103908
H           1.6595110    -4.5936374     1.5664091
32
123_C17H13NO_8-7-15-16 (60,) energy =    -785.6290339
C           5.0380434     1.7869959     2.4029853
H           5.5572355     2.6246934     2.8597972
C           5.4362818     0.4768563     2.6661371
H           6.2787865     0.2798793     3.3233843
C           4.7552610    -0.5854166     2.0756016
H           5.0843684    -1.6042445     2.2588365
C           3.6655626    -0.3781225     1.2139630
C           3.2631213     0.9548644     0.9536150
C           3.9549987     2.0162294     1.5576209
H           3.6179370     3.0312593     1.3684634
C          -0.2731616     1.8485475    -1.3078368
H          -1.1936872     2.0460379    -1.8454300
C          -0.3775252     0.9882576    -0.1433253
N           0.8622528     0.7823473     0.5039342
H           0.8106466     0.1705650     1.3109500
C           2.0743657     1.2954844     0.1247614
C           2.1291709     2.1012993    -0.9851307
H           3.0801677     2.5064035    -1.3087976
C           0.9260429     2.3738468    -1.6979469
H           0.9725706     3.0113353    -2.5780250
O          -1.3938535     0.4636872     0.3014558
C           1.8257064    -3.8573199    -0.5343631
H           1.3659936    -4.7387937    -0.9726279
C           2.2023598    -2.7848386    -1.3453484
H           2.0435564    -2.8319536    -2.4192639
C           2.7859435    -1.6500202    -0.7850163
H           3.0817421    -0.8239728    -1.4244977
C           3.0061211    -1.5665205     0.5996635
C           2.6277918    -2.6545028     1.4037700
H           2.7809593    -2.6013459     2.4785751
C           2.0401162    -3.7883266     0.8426572
H           1.7444663    -4.6145110     1.4836114
32
123_C17H13NO_8-7-15-16 (75,) energy =    -785.6274332
C           4.9716423     1.7773735     2.4825182
H           5.4588769     2.6101678     2.9815470
C           5.4023375     0.4693441     2.7006838
H           6.2386135     0.2702385     3.3652833
C           4.7597605    -0.5883071     2.0605638
H           5.1070177    -1.6052523     2.2193601
C           3.6793195    -0.3772848     1.1878197
C           3.2556726     0.9541503     0.9612582
C           3.8989342     2.0097420     1.6240027
H           3.5421578     3.0227622     1.4603816
C          -0.3058981     1.8082410    -1.2768465
H          -1.2352379     1.9994464    -1.8014226
C          -0.4172373     1.1581361     0.0161807
N           0.8361415     0.9470419     0.6364408
H           0.7815306     0.4829145     1.5364212
C           2.0623836     1.2859340     0.1292464
C           2.1238067     1.8914963    -1.0992277
H           3.0854398     2.1602973    -1.5193378
C           0.9088508     2.1541718    -1.7970480
H           0.9583521     2.6368708    -2.7705289
O          -1.4467268     0.8038704     0.5822400
C           1.8664288    -3.8458756    -0.6097827
H           1.4128987    -4.7252981    -1.0586149
C           2.2614059    -2.7729809    -1.4108847
H           2.1238430    -2.8175653    -2.4879004
C           2.8383684    -1.6407737    -0.8373387
H           3.1501667    -0.8162435    -1.4699489
C           3.0321911    -1.5606013     0.5509841
C           2.6363505    -2.6498472     1.3451710
H           2.7702605    -2.5996075     2.4226555
C           2.0560536    -3.7806037     0.7712281
H           1.7471017    -4.6076639     1.4047924
32
123_C17H13NO_8-7-15-16 (90,) energy =    -785.6259914
C           5.0233781     1.8104708     2.3384456
H           5.5059770     2.6611933     2.8110371
C           5.6208830     0.5504441     2.3652124
H           6.5724388     0.4050214     2.8693164
C           4.9956270    -0.5271555     1.7428235
H           5.4594940    -1.5089521     1.7714712
C           3.7603337    -0.3866333     1.0867919
C           3.1547670     0.8910737     1.0750407
C           3.8015046     1.9737418     1.6895201
H           3.3365751     2.9549399     1.6455458
C          -0.5936615     1.8464780    -0.7897658
H          -1.5611561     2.0990029    -1.2088445
C          -0.5665073     1.5235900     0.6242656
N           0.7310002     1.2069738     1.0911197
H           0.7758091     0.9982252     2.0826597
C           1.8825823     1.1743534     0.3446879
C           1.8145314     1.5084925    -0.9810169
H           2.7139561     1.5034149    -1.5840004
C           0.5462955     1.8378577    -1.5426692
H           0.4932107     2.0922251    -2.5987834
O          -1.5156065     1.5073949     1.4027726
C           2.1401023    -3.8729083    -0.8587430
H           1.7405662    -4.7569408    -1.3481443
C           3.4532747    -3.4672858    -1.1020661
H           4.0814424    -4.0315814    -1.7862795
C           3.9636474    -2.3327593    -0.4724392
H           4.9820090    -2.0132733    -0.6771820
C           3.1713858    -1.5769624     0.4082856
C           1.8539745    -1.9994860     0.6464294
H           1.2262507    -1.4486002     1.3388994
C           1.3439174    -3.1355208     0.0188482
H           0.3228093    -3.4464008     0.2222459
32
123_C17H13NO_8-7-15-16 (105,) energy =    -785.6274521
C           4.9598260     1.7910040     2.4224511
H           5.4114920     2.6319233     2.9408985
C           5.6015398     0.5530354     2.3842061
H           6.5562528     0.4143688     2.8841382
C           5.0129002    -0.5128602     1.7083228
H           5.5039727    -1.4816657     1.6995440
C           3.7750237    -0.3811337     1.0556651
C           3.1303002     0.8768684     1.0985633
C           3.7347253     1.9458639     1.7783331
H           3.2394658     2.9133159     1.7808962
C          -0.6063555     1.8664371    -0.7643237
H          -1.5684180     2.1388761    -1.1833881
C          -0.5345912     1.7738604     0.6813245
N           0.7527254     1.4136602     1.1454579
H           0.8252420     1.3422521     2.1547158
C           1.8575887     1.1548069     0.3726921
C           1.7486578     1.2708409    -0.9876223
H           2.6118013     1.0855663    -1.6144512
C           0.4873762     1.6247885    -1.5474401
H           0.4015162     1.7090420    -2.6283670
O          -1.4404818     1.9690411     1.4865900
C           2.1847419    -3.8602081    -0.9234307
H           1.7908173    -4.7438238    -1.4181099
C           3.5019240    -3.4573986    -1.1478095
H           4.1386428    -4.0231358    -1.8228605
C           4.0058161    -2.3236513    -0.5107727
H           5.0277315    -2.0067167    -0.7015094
C           3.2022353    -1.5669942     0.3580355
C           1.8793931    -1.9853481     0.5757655
H           1.2439959    -1.4290493     1.2579658
C           1.3764782    -3.1203543    -0.0581663
H           0.3517065    -3.4292317     0.1293773
32
123_C17H13NO_8-7-15-16 (120,) energy =    -785.6284914
C           4.8931273     1.7539073     2.5202154
H           5.3190375     2.5796062     3.0830018
C           5.5671798     0.5365611     2.4263338
H           6.5217668     0.3970327     2.9261147
C           5.0066804    -0.5099891     1.6978341
H           5.5165768    -1.4680255     1.6525660
C           3.7700192    -0.3781920     1.0443453
C           3.0977430     0.8644691     1.1296419
C           3.6702013     1.9102955     1.8731534
H           3.1586490     2.8684872     1.9128747
C          -0.6181023     1.9044952    -0.7436785
H          -1.5709551     2.1995215    -1.1683680
C          -0.4834873     2.0343324     0.6941992
N           0.7866372     1.6280460     1.1661181
H           0.8935197     1.6925408     2.1726821
C           1.8271267     1.1473800     0.4095232
C           1.6568828     1.0481715    -0.9474292
H           2.4665689     0.6847053    -1.5669045
C           0.4083087     1.4316467    -1.5131474
H           0.2770688     1.3494602    -2.5896538
O          -1.3279826     2.4379891     1.4888489
C           2.2364775    -3.8590697    -0.9737535
H           1.8565969    -4.7448607    -1.4754920
C           3.5305002    -3.4058712    -1.2323895
H           4.1630878    -3.9343590    -1.9406860
C           4.0172129    -2.2695773    -0.5852931
H           5.0219945    -1.9144531    -0.7989762
C           3.2172285    -1.5617569     0.3259436
C           1.9174348    -2.0301588     0.5781342
H           1.2882678    -1.5074193     1.2925660
C           1.4327669    -3.1677709    -0.0643431
H           0.4263524    -3.5172682     0.1495902
32
123_C17H13NO_8-7-15-16 (135,) energy =    -785.6283416
C           4.8435191     1.7081880     2.5979168
H           5.2488897     2.5159001     3.2005473
C           5.5300314     0.5014242     2.4731245
H           6.4753825     0.3495488     2.9865104
C           4.9886248    -0.5205673     1.6966270
H           5.5027073    -1.4751390     1.6301411
C           3.7643555    -0.3749532     1.0244216
C           3.0844799     0.8647603     1.1261683
C           3.6347113     1.8801623     1.9296359
H           3.1286136     2.8401014     1.9879947
C          -0.6207927     1.9365131    -0.7595844
H          -1.5673102     2.2430139    -1.1901962
C          -0.4029738     2.2734625     0.6334162
N           0.8518770     1.8365427     1.1158212
H           0.9990153     2.0279148     2.1005204
C           1.8181319     1.1619483     0.4081537
C           1.5625030     0.8572959    -0.9059034
H           2.3063236     0.3389803    -1.4956450
C           0.3235367     1.2583164    -1.4788544
H           0.1323640     1.0181101    -2.5221823
O          -1.1732344     2.8623961     1.3870730
C           2.3028959    -3.8666753    -1.0285016
H           1.9422369    -4.7568938    -1.5365484
C           3.5627728    -3.3484168    -1.3289970
H           4.1881989    -3.8308202    -2.0754876
C           4.0254851    -2.2066899    -0.6725562
H           5.0050361    -1.8022638    -0.9142850
C           3.2328544    -1.5588887     0.2876069
C           1.9678034    -2.0924295     0.5826716
H           1.3472510    -1.6132804     1.3343756
C           1.5084909    -3.2357504    -0.0679014
H           0.5293552    -3.6373436     0.1788147
32
123_C17H13NO_8-7-15-16 (150,) energy =    -785.6263726
C           4.7929357     1.6574437     2.6826439
H           5.1796005     2.4441692     3.3240279
C           5.4798302     0.4537763     2.5413157
H           6.4086775     0.2799817     3.0772173
C           4.9540423    -0.5384234     1.7172943
H           5.4619780    -1.4952066     1.6368023
C           3.7507123    -0.3669221     1.0149568
C           3.0757561     0.8784576     1.1187463
C           3.6076967     1.8567279     1.9816466
H           3.1237398     2.8267768     2.0510066
C          -0.6426454     1.9642462    -0.7569851
H          -1.5909518     2.2711538    -1.1833157
C          -0.3210932     2.4815702     0.5578343
N           0.9284335     2.0318349     1.0392518
H           1.1228180     2.3364543     1.9855387
C           1.8140730     1.1952313     0.3986983
C           1.4497427     0.7100974    -0.8348870
H           2.1196437     0.0654844    -1.3848001
C           0.2110577     1.1163114    -1.4046064
H          -0.0545753     0.7351158    -2.3878832
O          -1.0093517     3.2223697     1.2550033
C           2.3652036    -3.8693738    -1.0734014
H           2.0251154    -4.7635550    -1.5886249
C           3.5794763    -3.2775954    -1.4214239
H           4.1902008    -3.7071225    -2.2111182
C           4.0164960    -2.1307405    -0.7551243
H           4.9620075    -1.6706046    -1.0304747
C           3.2408639    -1.5518499     0.2603833
C           2.0230577    -2.1597621     0.6051180
H           1.4187221    -1.7313532     1.3994955
C           1.5904137    -3.3081112    -0.0549039
H           0.6478287    -3.7683204     0.2291153
32
123_C17H13NO_8-7-15-16 (165,) energy =    -785.6225982
C           5.7998296     1.6597346     1.0178407
H           6.5568314     2.4368387     1.0711160
C           6.0710159     0.3697015     1.4649537
H           7.0422312     0.1172832     1.8808397
C           5.0698458    -0.5946485     1.3877457
H           5.2560264    -1.5943930     1.7694888
C           3.7950781    -0.3148066     0.8715585
C           3.5295863     0.9867716     0.3613018
C           4.5495573     1.9533839     0.4841631
H           4.4057536     2.9485730     0.0757384
C          -0.2216925     2.4719520    -1.1800838
H          -1.1483205     2.8995536    -1.5456559
C           0.7704356     3.3960114    -0.6714456
N           1.9431226     2.7567473    -0.2146991
H           2.5891698     3.4068294     0.2131397
C           2.2194277     1.4062556    -0.2132092
C           1.2258781     0.5713984    -0.6730269
H           1.3850840    -0.4935240    -0.7251516
C           0.0125823     1.1267663    -1.1668135
H          -0.7469810     0.4453462    -1.5429045
O           0.6774541     4.6183347    -0.5909976
C           1.0240148    -3.5852752     1.2967923
H           0.3360697    -4.4175411     1.4182057
C           2.0738553    -3.6702275     0.3820940
H           2.2081279    -4.5694880    -0.2132070
C           2.9596021    -2.6008222     0.2298404
H           3.7771752    -2.6692872    -0.4830947
C           2.7994054    -1.4273774     0.9804875
C           1.7448820    -1.3562724     1.9042974
H           1.6182310    -0.4570210     2.5004896
C           0.8651451    -2.4258985     2.0604913
H           0.0558408    -2.3557043     2.7823579
32
123_C17H13NO_8-7-15-16 (180,) energy =    -785.6191519
C           5.7540608     1.6707443     1.1311984
H           6.5188754     2.4414167     1.1614064
C           6.0018887     0.4004984     1.6409822
H           6.9636776     0.1515519     2.0799767
C           4.9892907    -0.5516380     1.5781428
H           5.1635878    -1.5492845     1.9707364
C           3.7307488    -0.2789793     1.0211796
C           3.4646234     1.0186406     0.4959761
C           4.5134600     1.9609340     0.5752918
H           4.3880403     2.9685718     0.1970203
C          -0.1846593     2.4778073    -1.3368128
H          -1.0699791     2.8955293    -1.8023350
C           0.9610683     3.3500412    -1.1984596
N           2.0668007     2.7263501    -0.5834901
H           2.8445935     3.3653524    -0.5038038
C           2.1653131     1.4307495    -0.1212374
C           1.0422463     0.6470564    -0.2801905
H           1.0281192    -0.3755794     0.0505792
C          -0.1228262     1.1897501    -0.8905419
H          -0.9891758     0.5412623    -0.9987248
O           1.0517271     4.5240400    -1.5501610
C           1.1101572    -3.6960601     1.1698423
H           0.4623484    -4.5672370     1.2151849
C           1.9318256    -3.4898740     0.0599486
H           1.9283953    -4.2018721    -0.7610814
C           2.7643871    -2.3712874     0.0016261
H           3.4026921    -2.2118630    -0.8632267
C           2.7794964    -1.4382037     1.0486187
C           1.9623374    -1.6620676     2.1662797
H           1.9758854    -0.9504402     2.9873870
C           1.1299344    -2.7808288     2.2240831
H           0.4994859    -2.9384406     3.0951401
