32
123_C17H13NO_4-6-27-25 (-165,) energy =    -785.6211743
C           5.3543755     1.8482793     1.7289269
H           5.9847879     2.7087012     1.9332463
C           5.6112945     0.6134082     2.3205930
H           6.4520922     0.4906000     2.9977673
C           4.7946582    -0.4759378     2.0375636
H           5.0612546    -1.4335552     2.4692453
C           3.7024923    -0.4047815     1.1478814
C           3.4125097     0.8776288     0.6072951
C           4.2562592     1.9664867     0.8839096
H           4.0108338     2.9327862     0.4512111
C           0.0890286     2.0143798    -1.8613483
H          -0.7133730     2.3207466    -2.5228982
C           1.4096491     1.9140897    -2.4525656
N           2.3968961     1.5020937    -1.5241084
H           3.3279264     1.4160491    -1.9178101
C           2.2009845     1.2180726    -0.1958253
C           0.9401332     1.3444086     0.3246819
H           0.7670390     1.1334361     1.3724502
C          -0.1206043     1.7437192    -0.5377538
H          -1.1222903     1.8368377    -0.1243847
O           1.7247060     2.1395044    -3.6169860
C           1.2164008    -3.9246375     0.6526537
H           0.5866333    -4.8032963     0.5439754
C           1.1671278    -2.8962506    -0.2872357
H           0.5010558    -2.9682742    -1.1427326
C           1.9694855    -1.7652850    -0.1444941
H           1.9285938    -1.0158812    -0.9231425
C           2.8727449    -1.6320063     0.9275888
C           2.8867269    -2.6746298     1.8771801
H           3.5057201    -2.5970052     2.7637229
C           2.0834210    -3.8040085     1.7384240
H           2.1268109    -4.5843373     2.4935861
32
123_C17H13NO_4-6-27-25 (-150,) energy =    -785.6257639
C           5.4315633     1.8091569     1.6095531
H           6.0931599     2.6551824     1.7714237
C           5.6766060     0.5826950     2.2251299
H           6.5392471     0.4547707     2.8731828
C           4.8197865    -0.4898543     1.9974901
H           5.0575396    -1.4519354     2.4397183
C           3.7007946    -0.3944276     1.1482475
C           3.4246028     0.8753264     0.5778607
C           4.3094347     1.9446646     0.7979557
H           4.0790876     2.9106503     0.3561682
C           0.0240859     2.0124299    -1.7792667
H          -0.7987515     2.3307847    -2.4092718
C           1.3515908     2.1063866    -2.3547868
N           2.3659153     1.6670798    -1.4701880
H           3.3017354     1.7095269    -1.8593448
C           2.1904940     1.1967515    -0.1923416
C           0.9182388     1.1355407     0.3143224
H           0.7570643     0.7779096     1.3232577
C          -0.1681389     1.5488017    -0.5072924
H          -1.1765007     1.4965549    -0.1031109
O           1.6525756     2.5055012    -3.4759549
C           1.2013906    -3.8846002     0.6686056
H           0.5711349    -4.7623628     0.5551036
C           1.3415017    -2.9764083    -0.3819749
H           0.8251172    -3.1457422    -1.3229227
C           2.1441632    -1.8467712    -0.2360757
H           2.2589017    -1.1749229    -1.0791132
C           2.8490431    -1.6046487     0.9567884
C           2.6826283    -2.5229314     2.0102150
H           3.1645022    -2.3388565     2.9654929
C           1.8755711    -3.6504750     1.8672079
H           1.7654823    -4.3396100     2.7003019
32
123_C17H13NO_4-6-27-25 (-135,) energy =    -785.6282103
C           5.4823812     1.7726678     1.5292207
H           6.1693128     2.6034915     1.6621314
C           5.7302011     0.5413487     2.1346729
H           6.6202930     0.3952078     2.7403340
C           4.8384454    -0.5118024     1.9487863
H           5.0587104    -1.4811935     2.3859704
C           3.6819491    -0.3791895     1.1606372
C           3.4146239     0.8864430     0.5816016
C           4.3315251     1.9360989     0.7633020
H           4.1095586     2.9075813     0.3293376
C          -0.0334173     2.0078956    -1.7122634
H          -0.8697567     2.3260680    -2.3243289
C           1.2900034     2.2168954    -2.2662344
N           2.3222324     1.7728393    -1.4065388
H           3.2549673     1.8895293    -1.7874576
C           2.1685516     1.1970214    -0.1691657
C           0.8975968     1.0222726     0.3157957
H           0.7497216     0.5813686     1.2930470
C          -0.2055930     1.4363215    -0.4821224
H          -1.2113459     1.2959819    -0.0927703
O           1.5739259     2.7105951    -3.3539579
C           1.2073775    -3.8728869     0.6707848
H           0.5901071    -4.7588965     0.5498966
C           1.5096912    -3.0705468    -0.4317904
H           1.1335141    -3.3330716    -1.4168437
C           2.2973236    -1.9316115    -0.2782294
H           2.5373068    -1.3272462    -1.1474508
C           2.8104400    -1.5749855     0.9804005
C           2.4971527    -2.3906595     2.0805636
H           2.8614044    -2.1182987     3.0674280
C           1.7035037    -3.5277378     1.9281997
H           1.4690304    -4.1397734     2.7951075
32
123_C17H13NO_4-6-27-25 (-120,) energy =    -785.6285222
C           5.5281507     1.7429546     1.4645519
H           6.2314184     2.5626529     1.5804844
C           5.7864775     0.4997044     2.0406591
H           6.7014090     0.3329087     2.6023585
C           4.8701643    -0.5377555     1.8820425
H           5.0853879    -1.5157314     2.3031074
C           3.6793322    -0.3695260     1.1575128
C           3.4130416     0.8986555     0.5870047
C           4.3511028     1.9338240     0.7459675
H           4.1307735     2.9135613     0.3301548
C          -0.0622390     2.0189100    -1.6661614
H          -0.9058254     2.3388827    -2.2672374
C           1.2563167     2.3059439    -2.1962800
N           2.2981422     1.8548285    -1.3533740
H           3.2274161     2.0213367    -1.7236619
C           2.1596776     1.2063458    -0.1500981
C           0.8920971     0.9559145     0.3113636
H           0.7523471     0.4579430     1.2616630
C          -0.2205325     1.3727011    -0.4718147
H          -1.2225967     1.1728837    -0.0993342
O           1.5284595     2.8671740    -3.2540675
C           1.2174335    -3.8673920     0.6719628
H           0.6086313    -4.7592778     0.5512445
C           1.6916628    -3.1842236    -0.4504219
H           1.4585009    -3.5462758    -1.4481135
C           2.4709170    -2.0390058    -0.2978195
H           2.8432516    -1.5178929    -1.1752729
C           2.7898331    -1.5545978     0.9807441
C           2.3176945    -2.2558794     2.1009225
H           2.5578821    -1.8927349     3.0969526
C           1.5329216    -3.3999497     1.9481364
H           1.1686685    -3.9245445     2.8275080
32
123_C17H13NO_4-6-27-25 (-105,) energy =    -785.6274499
C           5.5460002     1.7240755     1.4176253
H           6.2546289     2.5400333     1.5276571
C           5.8287861     0.4636173     1.9426292
H           6.7683808     0.2797464     2.4561815
C           4.9023889    -0.5674057     1.7967900
H           5.1276884    -1.5565754     2.1854200
C           3.6781951    -0.3715639     1.1402369
C           3.3951040     0.9066527     0.6034676
C           4.3411302     1.9367845     0.7536720
H           4.1095244     2.9271743     0.3706446
C          -0.1121388     2.0397367    -1.5942802
H          -0.9633563     2.3637980    -2.1822561
C           1.1989515     2.3844883    -2.1083655
N           2.2511759     1.9245390    -1.2844588
H           3.1754701     2.1250404    -1.6499999
C           2.1306107     1.2175563    -0.1120571
C           0.8692447     0.9119249     0.3338260
H           0.7390215     0.3697898     1.2604655
C          -0.2535060     1.3348353    -0.4317272
H          -1.2499254     1.0907892    -0.0706248
O           1.4568281     2.9985654    -3.1401523
C           1.2188799    -3.8754762     0.6764147
H           0.6133065    -4.7705411     0.5630710
C           1.8700749    -3.3241747    -0.4291346
H           1.7775779    -3.7923604    -1.4054370
C           2.6480186    -2.1758193    -0.2853110
H           3.1579493    -1.7540024    -1.1471735
C           2.7783619    -1.5535005     0.9649670
C           2.1361062    -2.1262696     2.0725935
H           2.2461650    -1.6629189     3.0499079
C           1.3552899    -3.2744721     1.9284264
H           0.8572588    -3.7000759     2.7956347
32
123_C17H13NO_4-6-27-25 (-90,) energy =    -785.6265549
C           5.4052518     1.8084318     1.7859473
H           6.0275042     2.6554188     2.0609842
C           5.7992907     0.5084681     2.1001112
H           6.7280719     0.3272547     2.6339296
C           4.9911432    -0.5631197     1.7248938
H           5.2883332    -1.5783707     1.9727050
C           3.7905851    -0.3730939     1.0253252
C           3.3768066     0.9492112     0.7312325
C           4.2063944     2.0197161     1.1116656
H           3.9023057     3.0299993     0.8559958
C          -0.3116044     1.8882131    -1.2675508
H          -1.2312779     2.0974953    -1.8020705
C           0.5104351     0.8130679    -1.7886157
N           1.6907284     0.6028191    -1.0400285
H           2.2556424    -0.1652357    -1.3831536
C           2.0843308     1.2899292     0.0778127
C           1.2729632     2.3019779     0.5357684
H           1.5453674     2.8462478     1.4311317
C           0.0641576     2.5900140    -0.1572038
H          -0.5741346     3.3874864     0.2165790
O           0.2820188     0.1168888    -2.7739941
C           1.4018597    -3.8478232     0.1317738
H           0.7944118    -4.7195947    -0.0945694
C           2.3788637    -3.4217967    -0.7688346
H           2.5363575    -3.9598830    -1.6993699
C           3.1547037    -2.2981336    -0.4785662
H           3.9270413    -1.9789700    -1.1755051
C           2.9637257    -1.5843070     0.7146206
C           1.9792183    -2.0211379     1.6114687
H           1.8192847    -1.4727558     2.5357691
C           1.2063568    -3.1467069     1.3228279
H           0.4467108    -3.4728467     2.0281911
32
123_C17H13NO_4-6-27-25 (-75,) energy =    -785.6281223
C           5.4320100     1.8035745     1.7534428
H           6.0545568     2.6494710     2.0310919
C           5.8616057     0.4990923     1.9949868
H           6.8189816     0.3141622     2.4742359
C           5.0510695    -0.5718201     1.6227635
H           5.3716997    -1.5902915     1.8237673
C           3.8105961    -0.3744267     0.9990334
C           3.3711772     0.9507690     0.7627244
C           4.2002439     2.0207424     1.1426072
H           3.8737629     3.0341730     0.9303253
C          -0.3409745     1.8560042    -1.2003201
H          -1.2655180     2.0560904    -1.7299352
C           0.4994327     0.8040771    -1.7406560
N           1.6854421     0.6053359    -0.9984414
H           2.2672250    -0.1448928    -1.3541430
C           2.0669220     1.2823041     0.1302796
C           1.2389997     2.2713186     0.6066773
H           1.5051018     2.8075333     1.5089319
C           0.0234672     2.5476420    -0.0799425
H          -0.6290002     3.3272210     0.3068926
O           0.2799064     0.1193023    -2.7357066
C           1.3971871    -3.8288542     0.1081004
H           0.7847795    -4.6966045    -0.1203260
C           2.5241054    -3.5440856    -0.6635331
H           2.7924461    -4.1877501    -1.4967078
C           3.3073221    -2.4254382    -0.3722073
H           4.1875957    -2.2071892    -0.9723992
C           2.9734551    -1.5773031     0.6949167
C           1.8352419    -1.8700724     1.4602792
H           1.5637758    -1.2154673     2.2838944
C           1.0563960    -2.9902593     1.1713590
H           0.1792480    -3.2060939     1.7754039
32
123_C17H13NO_4-6-27-25 (-60,) energy =    -785.6292767
C           5.4501286     1.7949374     1.7103124
H           6.0767827     2.6377354     1.9878586
C           5.9009899     0.4874620     1.8892727
H           6.8805564     0.2967159     2.3187963
C           5.0829365    -0.5793411     1.5233709
H           5.4186806    -1.5994262     1.6875451
C           3.8097148    -0.3769578     0.9685910
C           3.3579693     0.9523042     0.7794171
C           4.1921887     2.0181067     1.1573247
H           3.8505113     3.0338611     0.9832444
C          -0.3692823     1.8795094    -1.1404783
H          -1.2964864     2.0861627    -1.6628362
C           0.4896019     0.8658278    -1.7240530
N           1.6784286     0.6570109    -0.9892306
H           2.2780917    -0.0630002    -1.3766212
C           2.0452287     1.2910253     0.1690924
C           1.2013126     2.2450248     0.6857066
H           1.4590824     2.7478016     1.6094935
C          -0.0180905     2.5297067     0.0085485
H          -0.6841662     3.2813543     0.4261642
O           0.2823456     0.2203631    -2.7473305
C           1.4258308    -3.8612730     0.1232169
H           0.8258578    -4.7414287    -0.0902850
C           2.6613255    -3.6866832    -0.5007183
H           3.0271301    -4.4286694    -1.2051844
C           3.4291980    -2.5532174    -0.2285044
H           4.3894758    -2.4172405    -0.7197554
C           2.9717172    -1.5765688     0.6703262
C           1.7250501    -1.7617938     1.2886805
H           1.3589012    -1.0134190     1.9858308
C           0.9612163    -2.8960539     1.0194612
H           0.0003162    -3.0260102     1.5097949
32
123_C17H13NO_4-6-27-25 (-45,) energy =    -785.6293998
C           5.4653175     1.7849049     1.6634296
H           6.0968822     2.6249379     1.9380263
C           5.9302466     0.4762290     1.7877319
H           6.9283725     0.2805937     2.1697650
C           5.1040256    -0.5867023     1.4313821
H           5.4528976    -1.6060199     1.5682322
C           3.8018219    -0.3843526     0.9440914
C           3.3447905     0.9494166     0.7908615
C           4.1855202     2.0109754     1.1645461
H           3.8314429     3.0277318     1.0238363
C          -0.3889450     1.9329165    -1.0874295
H          -1.3164684     2.1562773    -1.6023510
C           0.4882599     0.9678423    -1.7242795
N           1.6762885     0.7346277    -0.9953328
H           2.2926020     0.0520928    -1.4223561
C           2.0266967     1.3048386     0.2005694
C           1.1674948     2.2158612     0.7661094
H           1.4151103     2.6691480     1.7179866
C          -0.0528014     2.5214635     0.0986979
H          -0.7318872     3.2385395     0.5544314
O           0.2967768     0.3805767    -2.7847453
C           1.4558771    -3.9098568     0.1533604
H           0.8699055    -4.8042861    -0.0388260
C           2.7682012    -3.8166560    -0.3110100
H           3.2095078    -4.6371945    -0.8702493
C           3.5182733    -2.6665348    -0.0656029
H           4.5347585    -2.5958466    -0.4436139
C           2.9676998    -1.5827869     0.6394507
C           1.6467308    -1.6937248     1.1061637
H           1.2085736    -0.8765356     1.6713101
C           0.8994385    -2.8445443     0.8643674
H          -0.1196141    -2.9102506     1.2355794
32
123_C17H13NO_4-6-27-25 (-30,) energy =    -785.6275607
C           5.4702612     1.7848764     1.6078042
H           6.1031020     2.6259288     1.8759532
C           5.9517976     0.4789699     1.6815502
H           6.9673943     0.2840474     2.0148226
C           5.1225914    -0.5852006     1.3385246
H           5.4934505    -1.5983574     1.4544044
C           3.7918728    -0.3963295     0.9230782
C           3.3283399     0.9407283     0.7956818
C           4.1703990     2.0037206     1.1613716
H           3.8000951     3.0183378     1.0497394
C          -0.4052982     1.9907840    -1.0458442
H          -1.3310585     2.2338077    -1.5549725
C           0.4932154     1.0841033    -1.7370022
N           1.6782312     0.8213591    -1.0126440
H           2.3124752     0.1816703    -1.4781535
C           2.0059614     1.3140475     0.2234635
C           1.1287141     2.1733288     0.8390379
H           1.3615164     2.5669810     1.8207757
C          -0.0899414     2.5046422     0.1799595
H          -0.7843342     3.1801240     0.6744960
O           0.3208658     0.5662754    -2.8360277
C           1.4651517    -3.9579965     0.1933031
H           0.8859728    -4.8619793     0.0269785
C           2.8263114    -3.9272884    -0.1111934
H           3.3152506    -4.8077730    -0.5192678
C           3.5676233    -2.7665387     0.1021452
H           4.6198441    -2.7558120    -0.1663367
C           2.9652349    -1.5972655     0.6024280
C           1.5968279    -1.6554834     0.9258393
H           1.1116099    -0.7905576     1.3656814
C           0.8558543    -2.8166682     0.7165455
H          -0.1999072    -2.8304498     0.9728836
32
123_C17H13NO_4-6-27-25 (-15,) energy =    -785.6234635
C           5.4725980     1.7946851     1.5607011
H           6.0994353     2.6408462     1.8265194
C           5.9802696     0.4974663     1.5684557
H           7.0153403     0.3116109     1.8415860
C           5.1561317    -0.5728785     1.2346737
H           5.5647631    -1.5735010     1.3131243
C           3.7968373    -0.4111728     0.9027191
C           3.3161305     0.9259048     0.8112298
C           4.1515495     1.9953894     1.1737858
H           3.7563443     3.0041392     1.1007755
C          -0.4092237     2.0463641    -1.0050704
H          -1.3302312     2.3117303    -1.5116616
C           0.5224698     1.2189852    -1.7501908
N           1.6984459     0.9206235    -1.0244107
H           2.3582447     0.3375589    -1.5274871
C           1.9899555     1.3152096     0.2555210
C           1.0846866     2.1050595     0.9201383
H           1.2911292     2.4219391     1.9350609
C          -0.1285668     2.4644540     0.2647961
H          -0.8467225     3.0833121     0.7979831
O           0.3835279     0.7915589    -2.8918700
C           1.4630343    -3.9969717     0.2342927
H           0.8815705    -4.9033584     0.0906156
C           2.8511895    -4.0177973     0.0987819
H           3.3626540    -4.9433125    -0.1515768
C           3.5949261    -2.8549603     0.2844968
H           4.6685244    -2.9051592     0.1377288
C           2.9786056    -1.6207064     0.5735132
C           1.5803304    -1.6351333     0.7494197
H           1.0647369    -0.7362631     1.0644903
C           0.8342524    -2.7979921     0.5678677
H          -0.2432570    -2.7649730     0.7036854
32
123_C17H13NO_4-6-27-25 (0,) energy =    -785.6183022
C           5.4819567     1.8104434     1.4383869
H           6.1053470     2.6654930     1.6826366
C           6.0044381     0.5203061     1.4190529
H           7.0532744     0.3453922     1.6425211
C           5.1816049    -0.5596148     1.1178910
H           5.6295186    -1.5437077     1.1566679
C           3.8037453    -0.4297362     0.8427187
C           3.3108194     0.9065334     0.7689630
C           4.1451215     1.9873268     1.1006905
H           3.7276776     2.9885581     1.0496720
C          -0.4352777     2.1243502    -0.9384199
H          -1.3584574     2.4231796    -1.4219391
C           0.5485259     1.4638996    -1.7776993
N           1.7222617     1.1068127    -1.0742963
H           2.4220994     0.6414323    -1.6421713
C           1.9694038     1.3140756     0.2589043
C           1.0198556     1.9570470     1.0110496
H           1.1954601     2.1276881     2.0660476
C          -0.1975460     2.3577163     0.3864223
H          -0.9533920     2.8577496     0.9877777
O           0.4520851     1.2127748    -2.9746418
C           1.4695492    -4.0615413     0.2874272
H           0.8908384    -4.9726851     0.1644273
C           2.8547591    -4.1136647     0.4389680
H           3.3700784    -5.0704538     0.4412459
C           3.5933091    -2.9444654     0.5970459
H           4.6663425    -3.0500480     0.6975318
C           2.9921318    -1.6667530     0.5750929
C           1.5858722    -1.6494522     0.4717506
H           1.0406299    -0.7207794     0.5451925
C           0.8423083    -2.8184984     0.3153539
H          -0.2384648    -2.7480626     0.2281027
32
123_C17H13NO_4-6-27-25 (15,) energy =    -785.6221180
C           5.6349769     1.7567843     0.9037543
H           6.3186832     2.5996595     0.9443463
C           6.0404187     0.4853319     1.3044208
H           7.0518549     0.3173408     1.6639967
C           5.1514059    -0.5825095     1.2345509
H           5.5189948    -1.5680046     1.4953194
C           3.8364895    -0.4467787     0.7460538
C           3.4095512     0.8710864     0.4269920
C           4.3235196     1.9369087     0.4766297
H           3.9733002     2.9332598     0.2197799
C          -0.5437312     2.1854868    -0.6062179
H          -1.5192334     2.5491873    -0.9086045
C           0.5212000     2.3050593    -1.5831398
N           1.7585114     1.8029438    -1.1111619
H           2.5147920     1.8626973    -1.7846720
C           2.0009399     1.2540131     0.1234388
C           0.9672268     1.1733397     1.0198538
H           1.1393825     0.7541354     2.0030640
C          -0.3176569     1.6463428     0.6298274
H          -1.1368617     1.5777130     1.3419267
O           0.4457456     2.7714415    -2.7159254
C           1.4586337    -4.0487646     0.3889418
H           0.8816278    -4.9628740     0.2795144
C           2.5390714    -3.9944435     1.2691528
H           2.8123965    -4.8679976     1.8549444
C           3.2806378    -2.8227149     1.4031496
H           4.0932846    -2.8116576     2.1215458
C           2.9485992    -1.6501555     0.6956328
C           1.8819615    -1.7446277    -0.2206626
H           1.6392795    -0.9081026    -0.8631532
C           1.1410906    -2.9165292    -0.3608726
H           0.3229543    -2.9453112    -1.0754258
32
123_C17H13NO_4-6-27-25 (30,) energy =    -785.6264281
C           5.6733789     1.7361465     0.8318020
H           6.3662579     2.5719809     0.8633438
C           6.0854142     0.4542217     1.1925971
H           7.1101748     0.2730743     1.5048854
C           5.1834663    -0.6046444     1.1391159
H           5.5348105    -1.6051214     1.3694396
C           3.8518017    -0.4356172     0.7171305
C           3.4248792     0.8828826     0.4127324
C           4.3505872     1.9394015     0.4501006
H           4.0064092     2.9443870     0.2200874
C          -0.5478573     2.1768403    -0.5646194
H          -1.5280962     2.5418650    -0.8495744
C           0.5340213     2.4368774    -1.4942370
N           1.7760882     1.9243722    -1.0492991
H           2.5426421     2.0788812    -1.6953870
C           2.0113315     1.2491236     0.1230453
C           0.9591825     1.0329630     0.9753711
H           1.1220616     0.5133730     1.9108579
C          -0.3315056     1.5067163     0.6074846
H          -1.1634071     1.3320827     1.2859372
O           0.4680414     3.0229925    -2.5708884
C           1.4489624    -4.0088951     0.4305747
H           0.8629677    -4.9198794     0.3451624
C           2.3997190    -3.8745137     1.4423837
H           2.5581747    -4.6799343     2.1545839
C           3.1538265    -2.7065484     1.5467432
H           3.8712420    -2.6123950     2.3566095
C           2.9600560    -1.6304786     0.6619012
C           2.0151825    -1.7954167    -0.3678052
H           1.8810701    -1.0143604    -1.1081492
C           1.2650443    -2.9643019    -0.4771136
H           0.5434107    -3.0624041    -1.2835784
32
123_C17H13NO_4-6-27-25 (45,) energy =    -785.6284253
C           5.6918601     1.7281028     0.7636186
H           6.3867686     2.5626198     0.7864647
C           6.1182535     0.4392841     1.0819920
H           7.1551744     0.2526422     1.3473214
C           5.2117840    -0.6173457     1.0446586
H           5.5569153    -1.6259348     1.2520951
C           3.8644033    -0.4294196     0.6922319
C           3.4286315     0.8877439     0.4044091
C           4.3572691     1.9425275     0.4307159
H           4.0111521     2.9525947     0.2274659
C          -0.5688574     2.1353025    -0.5283403
H          -1.5560185     2.4915881    -0.8001511
C           0.5176180     2.5002171    -1.4162727
N           1.7685908     1.9948386    -0.9910621
H           2.5368972     2.2187003    -1.6141414
C           2.0093356     1.2339738     0.1268433
C           0.9507799     0.9150547     0.9388329
H           1.1147273     0.3270194     1.8324022
C          -0.3484221     1.3781731     0.5886435
H          -1.1839560     1.1232624     1.2365039
O           0.4477545     3.1645353    -2.4465104
C           1.4259534    -3.9726001     0.4567042
H           0.8249065    -4.8754824     0.3919133
C           2.2431341    -3.7501218     1.5653305
H           2.2794990    -4.4773232     2.3721494
C           3.0165953    -2.5917110     1.6446610
H           3.6403261    -2.4198186     2.5178570
C           2.9783769    -1.6265421     0.6249807
C           2.1571220    -1.8686899    -0.4892229
H           2.1329822    -1.1515968    -1.3041242
C           1.3890757    -3.0281845    -0.5717348
H           0.7651036    -3.1970355    -1.4452014
32
123_C17H13NO_4-6-27-25 (60,) energy =    -785.6283895
C           5.7069202     1.7231901     0.7231189
H           6.4000510     2.5593901     0.7405627
C           6.1509843     0.4279517     0.9867329
H           7.1992670     0.2385705     1.2003696
C           5.2446008    -0.6299965     0.9624122
H           5.5930379    -1.6439288     1.1378262
C           3.8829724    -0.4313487     0.6845489
C           3.4329806     0.8863188     0.4284155
C           4.3602528     1.9432459     0.4470622
H           4.0073970     2.9573830     0.2788291
C          -0.5878268     2.1035512    -0.4434146
H          -1.5812252     2.4547492    -0.6986062
C           0.4956410     2.5504279    -1.2968676
N           1.7546763     2.0471427    -0.8962205
H           2.5195396     2.3249241    -1.5013414
C           2.0075771     1.2183563     0.1700879
C           0.9504344     0.8204306     0.9490020
H           1.1201675     0.1781672     1.8028863
C          -0.3567413     1.2771804     0.6208932
H          -1.1898882     0.9597049     1.2436963
O           0.4163857     3.2790444    -2.2822026
C           1.3921745    -3.9364717     0.4715176
H           0.7715768    -4.8267252     0.4169011
C           2.0589727    -3.6173956     1.6549061
H           1.9572942    -4.2561420     2.5283191
C           2.8575351    -2.4745277     1.7227366
H           3.3715680    -2.2252127     2.6475540
C           2.9985759    -1.6315750     0.6099371
C           2.3205094    -1.9616127    -0.5738602
H           2.4242002    -1.3218514    -1.4457467
C           1.5271237    -3.1053982    -0.6431187
H           1.0149843    -3.3490315    -1.5700624
32
123_C17H13NO_4-6-27-25 (75,) energy =    -785.6271790
C           5.7251502     1.7176023     0.6534958
H           6.4175152     2.5545747     0.6660829
C           6.1822767     0.4169855     0.8621520
H           7.2388091     0.2240446     1.0262118
C           5.2756325    -0.6414834     0.8494911
H           5.6296137    -1.6587284     0.9920812
C           3.9034639    -0.4358373     0.6425332
C           3.4423558     0.8837262     0.4226470
C           4.3690027     1.9420766     0.4334763
H           4.0105513     2.9589493     0.2966423
C          -0.5880363     2.0927132    -0.4207877
H          -1.5834558     2.4422012    -0.6704214
C           0.4952789     2.5718828    -1.2567522
N           1.7563999     2.0687479    -0.8645400
H           2.5201076     2.3657903    -1.4617643
C           2.0133462     1.2114766     0.1785989
C           0.9558974     0.7827389     0.9406412
H           1.1252834     0.1191689     1.7774608
C          -0.3538788     1.2380787     0.6199210
H          -1.1865993     0.8955229     1.2298899
O           0.4136603     3.3264769    -2.2222463
C           1.3626877    -3.9084335     0.4495304
H           0.7249985    -4.7868655     0.4002743
C           1.8544024    -3.4662725     1.6785485
H           1.5995389    -3.9979351     2.5915696
C           2.6733925    -2.3375033     1.7400707
H           3.0557013    -1.9942216     2.6981946
C           3.0141884    -1.6370746     0.5738110
C           2.5109122    -2.0872115    -0.6551612
H           2.7650487    -1.5507471    -1.5653326
C           1.6941233    -3.2160579    -0.7168686
H           1.3160203    -3.5545474    -1.6777963
32
123_C17H13NO_4-6-27-25 (90,) energy =    -785.6268140
C           5.7096130     1.6163263     1.1951321
H           6.3884873     2.4371766     1.4085788
C           6.1787078     0.3041562     1.1460163
H           7.2265137     0.0850194     1.3318291
C           5.2919869    -0.7311859     0.8565420
H           5.6496688    -1.7565260     0.8243237
C           3.9341518    -0.4902202     0.6013062
C           3.4531503     0.8396153     0.6759659
C           4.3620349     1.8741553     0.9632786
H           3.9973882     2.8963747     0.9861196
C          -0.6685004     1.8852955     0.0472862
H          -1.7073809     2.1261548    -0.1476762
C          -0.0456373     0.9294667    -0.8481012
N           1.3070798     0.6701761    -0.5309966
H           1.7406956    -0.0155349    -1.1383110
C           2.0240647     1.2131591     0.5026871
C           1.3915907     2.1145884     1.3272198
H           1.9233203     2.5407975     2.1684805
C           0.0290701     2.4422883     1.0815577
H          -0.4640864     3.1514448     1.7425964
O          -0.5649783     0.3662832    -1.8076130
C           1.5037922    -3.9815386    -0.0879118
H           0.8981563    -4.8671351    -0.2586121
C           1.6237078    -3.4513054     1.1978763
H           1.1164613    -3.9270498     2.0329427
C           2.3960748    -2.3104082     1.4186392
H           2.4873947    -1.9003981     2.4207350
C           3.0504879    -1.6758598     0.3536151
C           2.9439223    -2.2315562    -0.9308454
H           3.4774520    -1.7705617    -1.7594387
C           2.1677925    -3.3707769    -1.1522411
H           2.0854174    -3.7802182    -2.1551882
32
123_C17H13NO_4-6-27-25 (105,) energy =    -785.6282739
C           5.7212591     1.6239748     1.1600131
H           6.3988865     2.4439925     1.3803674
C           6.2043398     0.3221172     1.0307083
H           7.2623080     0.1115386     1.1603999
C           5.3195651    -0.7143963     0.7393051
H           5.6867269    -1.7334960     0.6559326
C           3.9477035    -0.4829151     0.5619931
C           3.4573831     0.8380330     0.7010094
C           4.3619484     1.8734168     0.9943399
H           3.9861857     2.8893331     1.0678899
C          -0.6774079     1.8420240     0.1132661
H          -1.7197242     2.0726796    -0.0756323
C          -0.0364898     0.9336378    -0.8189021
N           1.3193660     0.6848941    -0.5076310
H           1.7696766     0.0335060    -1.1406613
C           2.0226414     1.1972594     0.5511759
C           1.3745908     2.0543357     1.4090389
H           1.8992384     2.4563605     2.2666694
C           0.0071257     2.3690788     1.1716269
H          -0.5002310     3.0428288     1.8584533
O          -0.5446293     0.4019785    -1.8018561
C           1.4863765    -3.9560809    -0.0882460
H           0.8717448    -4.8373960    -0.2487858
C           1.4376899    -3.2802162     1.1328253
H           0.7901517    -3.6389527     1.9283325
C           2.2204768    -2.1448223     1.3390792
H           2.1812778    -1.6215362     2.2905114
C           3.0591496    -1.6631482     0.3229551
C           3.1158417    -2.3607758    -0.8934484
H           3.7783087    -2.0084674    -1.6805966
C           2.3281589    -3.4948785    -1.1006518
H           2.3735236    -4.0158710    -2.0530495
32
123_C17H13NO_4-6-27-25 (120,) energy =    -785.6293675
C           5.7273100     1.6309706     1.1068686
H           6.4044206     2.4526113     1.3224850
C           6.2180393     0.3396234     0.9160235
H           7.2830856     0.1385505     0.9916762
C           5.3330941    -0.6996976     0.6373458
H           5.7087363    -1.7120544     0.5183028
C           3.9497220    -0.4846085     0.5357630
C           3.4554201     0.8305470     0.7182830
C           4.3593241     1.8677098     1.0039973
H           3.9753624     2.8771653     1.1154636
C          -0.6834188     1.8390397     0.1789000
H          -1.7264293     2.0734084    -0.0014334
C          -0.0347274     0.9827503    -0.7967778
N           1.3220350     0.7278359    -0.4947514
H           1.7817483     0.1162222    -1.1600373
C           2.0177445     1.1879453     0.5926953
C           1.3635063     1.9967916     1.4909725
H           1.8852581     2.3589979     2.3680465
C          -0.0052803     2.3159361     1.2647544
H          -0.5187000     2.9516523     1.9826223
O          -0.5373572     0.4983521    -1.8063863
C           1.4859888    -3.9588184    -0.0933373
H           0.8703189    -4.8402839    -0.2490816
C           1.2778374    -3.1458479     1.0231376
H           0.5040891    -3.3974999     1.7433225
C           2.0613729    -2.0105559     1.2214485
H           1.8974842    -1.3836662     2.0933919
C           3.0673296    -1.6666029     0.3041052
C           3.2749267    -2.4972832    -0.8086107
H           4.0517016    -2.2432969    -1.5255618
C           2.4866109    -3.6315702    -1.0087264
H           2.6533134    -4.2560076    -1.8822156
32
123_C17H13NO_4-6-27-25 (135,) energy =    -785.6292530
C           5.7307552     1.6392550     1.0400179
H           6.4052637     2.4682203     1.2343626
C           6.2281403     0.3571851     0.8099134
H           7.2981540     0.1697623     0.8305924
C           5.3457027    -0.6917774     0.5648302
H           5.7343358    -1.6967252     0.4290391
C           3.9531995    -0.5033120     0.5412041
C           3.4547096     0.8096216     0.7412868
C           4.3562736     1.8556425     0.9991084
H           3.9622736     2.8586270     1.1324519
C          -0.6831340     1.8441276     0.2499375
H          -1.7254820     2.0878748     0.0783979
C          -0.0294608     1.0455360    -0.7706685
N           1.3262216     0.7748977    -0.4772920
H           1.7923839     0.2062657    -1.1754526
C           2.0153442     1.1711005     0.6389658
C           1.3582469     1.9289157     1.5779377
H           1.8778334     2.2428508     2.4748038
C          -0.0101839     2.2600766     1.3636851
H          -0.5272187     2.8547151     2.1134506
O          -0.5268246     0.6196850    -1.8086454
C           1.4887338    -3.9795595    -0.1012114
H           0.8708832    -4.8581428    -0.2644062
C           1.1495388    -3.0563388     0.8899275
H           0.2694457    -3.2170933     1.5064848
C           1.9354735    -1.9243944     1.0955794
H           1.6677827    -1.2196384     1.8769349
C           3.0839608    -1.6947244     0.3187574
C           3.4119486    -2.6314194    -0.6766215
H           4.2811875    -2.4597650    -1.3057855
C           2.6225405    -3.7622311    -0.8847227
H           2.8901196    -4.4682100    -1.6662454
32
123_C17H13NO_4-6-27-25 (150,) energy =    -785.6269955
C           5.0735418     1.9462591     2.1763702
H           5.6522265     2.8153152     2.4757050
C           5.4196782     0.6712680     2.6201571
H           6.2728093     0.5289288     3.2777279
C           4.6594359    -0.4268640     2.2291785
H           4.9080641    -1.4044773     2.6293950
C           3.5300425    -0.3053659     1.3980073
C           3.2207723     0.9905401     0.9033758
C           3.9859465     2.0923261     1.3206766
H           3.7363151     3.0724043     0.9254830
C           0.3326146     1.7563405    -2.1799009
H          -0.3672415     1.9209417    -2.9913370
C           1.3547629     0.7498883    -2.4024655
N           2.2304414     0.5990615    -1.3032607
H           2.9445154    -0.1080850    -1.4385134
C           2.1697361     1.2746185    -0.1124602
C           1.1902540     2.2228278     0.0532386
H           1.1183002     2.7631371     0.9891355
C           0.2663578     2.4528980    -1.0066473
H          -0.5121161     3.1997841    -0.8681905
O           1.5147485     0.0677108    -3.4098209
C           1.3885373    -3.9023837     0.3308973
H           0.8564751    -4.8083145     0.0543685
C           0.7052298    -2.6913171     0.4471773
H          -0.3654019    -2.6492199     0.2671818
C           1.3876827    -1.5262763     0.7915003
H           0.8305016    -0.6022642     0.9016322
C           2.7705391    -1.5424949     1.0492141
C           3.4454855    -2.7704277     0.9102667
H           4.5220043    -2.8112704     1.0450548
C           2.7638959    -3.9352669     0.5628843
H           3.3137081    -4.8668205     0.4589687
32
123_C17H13NO_4-6-27-25 (165,) energy =    -785.6225501
C           5.1227238     1.9349378     2.0860218
H           5.7165754     2.8043390     2.3525304
C           5.4859451     0.6600000     2.5132979
H           6.3730393     0.5139203     3.1234323
C           4.7026330    -0.4364791     2.1683224
H           4.9787345    -1.4030862     2.5731834
C           3.5232840    -0.3248780     1.4044108
C           3.2086944     0.9724535     0.9090275
C           3.9949812     2.0748354     1.2840946
H           3.7256213     3.0521888     0.8949070
C           0.3090350     1.8250556    -2.1402833
H          -0.3891614     2.0164333    -2.9472757
C           1.3933632     0.9038354    -2.4295620
N           2.2613820     0.7108705    -1.3303346
H           3.0208619     0.0633926    -1.5105894
C           2.1426712     1.2776497    -0.0879010
C           1.1095719     2.1517543     0.1391119
H           0.9966765     2.6083481     1.1147523
C           0.1865538     2.4155596    -0.9145840
H          -0.6364181     3.1019692    -0.7286316
O           1.6080378     0.3220918    -3.4883093
C           1.3904494    -3.9515408     0.3540929
H           0.8684797    -4.8624135     0.0746484
C           0.7548518    -2.7144121     0.2615531
H          -0.2725195    -2.6517677    -0.0863324
C           1.4276836    -1.5442368     0.6092196
H           0.8844508    -0.6089455     0.5661752
C           2.7518857    -1.5693491     1.0876021
C           3.3808673    -2.8304806     1.1498867
H           4.4224167    -2.9077714     1.4404318
C           2.7109025    -4.0004822     0.8011652
H           3.2325324    -4.9518045     0.8634033
32
123_C17H13NO_4-6-27-25 (180,) energy =    -785.6178658
C           5.1837667     1.9120469     1.9676235
H           5.7806670     2.7819492     2.2251366
C           5.5470035     0.6371091     2.3915597
H           6.4429184     0.4869726     2.9877708
C           4.7592510    -0.4586856     2.0578487
H           5.0786325    -1.4211902     2.4336293
C           3.5728899    -0.3615826     1.2985475
C           3.2482388     0.9440731     0.8274154
C           4.0428346     2.0462501     1.1853633
H           3.7534724     3.0251720     0.8142727
C           0.2406800     1.9800290    -2.0574782
H          -0.4805950     2.2306790    -2.8271259
C           1.4456416     1.3001097    -2.4979514
N           2.3321165     1.0067269    -1.4351782
H           3.1799059     0.5277058    -1.7194020
C           2.1366529     1.2928761    -0.1076238
C           0.9949435     1.9544472     0.2618125
H           0.8249402     2.1905256     1.3049746
C           0.0398852     2.2907221    -0.7423391
H          -0.8710578     2.8055507    -0.4455516
O           1.7406573     0.9835239    -3.6459018
C           1.3571505    -4.0303152     0.5072279
H           0.8174320    -4.9513036     0.3054547
C           0.8847601    -2.8093066     0.0336353
H          -0.0351908    -2.7639931    -0.5428334
C           1.5804054    -1.6276311     0.2881631
H           1.1456335    -0.7121912    -0.0794964
C           2.7769296    -1.6112008     1.0327740
C           3.2299509    -2.8642217     1.5018283
H           4.1433441    -2.9459346     2.0767598
C           2.5377729    -4.0449884     1.2490442
H           2.9309204    -4.9819554     1.6345456
