17
453_C8H6N2S_4-6-13-12 (-165,) energy =    -816.1406186
C           6.0965658     0.9308399    -0.0845448
H           7.0130215     1.5096472    -0.1466704
C           5.6797665     0.3533571     1.1131472
H           6.2676058     0.4643364     2.0201247
C           4.4970798    -0.3802105     1.1294155
H           4.1611889    -0.8571798     2.0453518
C           3.7589985    -0.5059564    -0.0589049
N           4.1583960     0.0487026    -1.2170477
C           5.2980495     0.7412813    -1.2154780
H           5.5891163     1.1735769    -2.1717813
C           0.7435467    -2.3474644    -0.9156795
H           0.1528010    -2.7379787    -1.7368835
N           1.8984027    -1.6652994    -1.1929022
C           2.4928370    -1.2673530    -0.1019007
S           1.6293607    -1.7168564     1.3813144
C           0.4245263    -2.4846249     0.4065467
H          -0.4298015    -2.9776075     0.8494613
17
453_C8H6N2S_4-6-13-12 (-150,) energy =    -816.1404072
C           6.0935922     0.9374128    -0.0786530
H           7.0125450     1.5127101    -0.1369748
C           5.7137674     0.2902603     1.0953180
H           6.3353026     0.3390757     1.9851699
C           4.5261025    -0.4363578     1.1069922
H           4.2159102    -0.9744807     1.9975227
C           3.7472915    -0.4799472    -0.0603451
N           4.1107815     0.1396590    -1.1969742
C           5.2568672     0.8227177    -1.1919516
H           5.5200539     1.3106630    -2.1292965
C           0.8095823    -2.4530369    -0.8934889
H           0.2919077    -2.9702517    -1.6936972
N           1.9860348    -1.8066693    -1.1711337
C           2.4808854    -1.2417029    -0.1049993
S           1.4958572    -1.4739834     1.3493536
C           0.3782864    -2.3945681     0.4024018
H          -0.5128849    -2.8241267     0.8387228
17
453_C8H6N2S_4-6-13-12 (-135,) energy =    -816.1395301
C           6.0936104     0.9401040    -0.0740405
H           7.0181257     1.5068844    -0.1283925
C           5.7448833     0.2269862     1.0708568
H           6.3973110     0.2132036     1.9396031
C           4.5475972    -0.4849493     1.0785046
H           4.2537730    -1.0723519     1.9428175
C           3.7317220    -0.4455264    -0.0621914
N           4.0653656     0.2343858    -1.1726757
C           5.2203072     0.9038751    -1.1641939
H           5.4598933     1.4448350    -2.0783878
C           0.8733333    -2.5510790    -0.8516735
H           0.4266013    -3.1855086    -1.6090957
N           2.0674319    -1.9315768    -1.1225534
C           2.4637905    -1.2087077    -0.1129977
S           1.3692826    -1.2529028     1.2763671
C           0.3367280    -2.3167199     0.3832292
H          -0.5866358    -2.6931045     0.8013661
17
453_C8H6N2S_4-6-13-12 (-120,) energy =    -816.1380612
C           6.0909086     0.9471275    -0.0711110
H           7.0170682     1.5116290    -0.1217893
C           5.7790606     0.1641698     1.0381698
H           6.4614919     0.0928830     1.8806718
C           4.5768660    -0.5405443     1.0434467
H           4.3026276    -1.1759738     1.8796827
C           3.7250534    -0.4254774    -0.0636397
N           4.0214800     0.3213287    -1.1401721
C           5.1800365     0.9862872    -1.1296615
H           5.3906632     1.5842595    -2.0149107
C           0.9338867    -2.6470882    -0.7882196
H           0.5549981    -3.3915628    -1.4794927
N           2.1532955    -2.0656617    -1.0386803
C           2.4554612    -1.1935782    -0.1196706
S           1.2437077    -1.0406698     1.1569165
C           0.2888725    -2.2339065     0.3428838
H          -0.6718364    -2.5493006     0.7258900
17
453_C8H6N2S_4-6-13-12 (-105,) energy =    -816.1366672
C           6.0815256     0.9632334    -0.0632941
H           7.0001027     1.5403839    -0.1104000
C           5.8208142     0.1019162     1.0002792
H           6.5356521    -0.0175333     1.8098223
C           4.6245262    -0.6133405     1.0037265
H           4.3837753    -1.3030567     1.8065765
C           3.7325061    -0.4345934    -0.0608295
N           3.9756991     0.3918112    -1.0903306
C           5.1284893     1.0684644    -1.0787037
H           5.2976236     1.7304296    -1.9263986
C           0.9797901    -2.7385487    -0.6953465
H           0.6581245    -3.5847613    -1.2919822
N           2.2359527    -2.2172915    -0.9022719
C           2.4594630    -1.2066942    -0.1127851
S           1.1228119    -0.8286919     0.9753654
C           0.2284898    -2.1344705     0.2713793
H          -0.7751469    -2.3738428     0.5947902
17
453_C8H6N2S_4-6-13-12 (-90,) energy =    -816.1365231
C           6.0621281     0.9847721    -0.0501397
H           6.9641196     1.5877064    -0.0947874
C           5.8716182     0.0393047     0.9554855
H           6.6247578    -0.1179374     1.7227569
C           4.6921518    -0.7034099     0.9603327
H           4.5018456    -1.4540526     1.7207850
C           3.7511561    -0.4740720    -0.0500276
N           3.9194630     0.4438684    -1.0145020
C           5.0572074     1.1466323    -1.0059077
H           5.1674651     1.8797576    -1.8032021
C           1.0126768    -2.8255930    -0.5739274
H           0.7323151    -3.7625763    -1.0417832
N           2.3082620    -2.3782214    -0.7008387
C           2.4749664    -1.2458277    -0.0804531
S           1.0239039    -0.6311464     0.7095364
C           0.1705466    -2.0298662     0.1475243
H          -0.8755020    -2.1842945     0.3737908
17
453_C8H6N2S_4-6-13-12 (-75,) energy =    -816.1383119
C           6.0464146     1.0028136    -0.0419287
H           6.9366363     1.6232820    -0.0819806
C           5.9161399    -0.0190114     0.8972304
H           6.7045300    -0.2163477     1.6184481
C           4.7484767    -0.7789395     0.9017217
H           4.6006729    -1.5853742     1.6125881
C           3.7611143    -0.4966544    -0.0504763
N           3.8648196     0.5041048    -0.9391725
C           4.9928575     1.2226049    -0.9309713
H           5.0521126     2.0195874    -1.6702492
C           1.0376374    -2.8865143    -0.4286350
H           0.7836321    -3.8920427    -0.7445911
N           2.3526655    -2.4853048    -0.4754753
C           2.4833364    -1.2594168    -0.0522688
S           0.9679627    -0.4840692     0.4019987
C           0.1425028    -1.9562381     0.0159660
H          -0.9275970    -2.0542496     0.1368564
17
453_C8H6N2S_4-6-13-12 (-60,) energy =    -816.1415699
C           6.0395288     1.0106668    -0.0300649
H           6.9266058     1.6360473    -0.0614017
C           5.9474356    -0.0766481     0.8385217
H           6.7632263    -0.3193103     1.5140020
C           4.7823667    -0.8389696     0.8371420
H           4.6599141    -1.6932791     1.4944800
C           3.7588237    -0.4968536    -0.0574849
N           3.8231552     0.5706446    -0.8698987
C           4.9494008     1.2914074    -0.8552483
H           4.9763602     2.1416970    -1.5345435
C           1.0556882    -2.9179424    -0.2791041
H           0.8164331    -3.9633456    -0.4385624
N           2.3738699    -2.5300451    -0.2618632
C           2.4815969    -1.2474749    -0.0438139
S           0.9424403    -0.4039453     0.0975385
C           0.1365622    -1.9226760    -0.1006540
H          -0.9418420    -1.9989792    -0.0758986
17
453_C8H6N2S_4-6-13-12 (-45,) energy =    -816.1453279
C           6.0307018     1.0177858    -0.0196617
H           6.9183126     1.6426922    -0.0412927
C           5.9653514    -0.1239853     0.7796291
H           6.8035880    -0.4101155     1.4091004
C           4.7996690    -0.8839283     0.7715196
H           4.6950105    -1.7784062     1.3759231
C           3.7460499    -0.4843963    -0.0639631
N           3.7864183     0.6340150    -0.8076492
C           4.9129151     1.3529520    -0.7856460
H           4.9179534     2.2459831    -1.4082419
C           1.0606591    -2.9240080    -0.1362550
H           0.8272216    -3.9828157    -0.1446709
N           2.3739180    -2.5307701    -0.0669712
C           2.4718247    -1.2275128    -0.0515669
S           0.9347132    -0.3809230    -0.1885597
C           0.1380459    -1.9170835    -0.2031938
H          -0.9388575    -1.9956005    -0.2625971
17
453_C8H6N2S_4-6-13-12 (-30,) energy =    -816.1486222
C           6.0261717     1.0256650    -0.0050476
H           6.9151563     1.6487601    -0.0180327
C           5.9823437    -0.1632431     0.7246078
H           6.8406772    -0.4895551     1.3056182
C           4.8153924    -0.9204238     0.7095361
H           4.7250511    -1.8501140     1.2602905
C           3.7347361    -0.4659551    -0.0613440
N           3.7582998     0.6923466    -0.7426532
C           4.8857680     1.4079309    -0.7139839
H           4.8743382     2.3357338    -1.2833333
C           1.0498695    -2.9013296    -0.0128334
H           0.8077305    -3.9504467     0.1153060
N           2.3557239    -2.4986730     0.1055422
C           2.4642308    -1.2067902    -0.0666145
S           0.9510176    -0.3911373    -0.4435997
C           0.1453726    -1.9163363    -0.3003204
H          -0.9235754    -2.0064566    -0.4369723
17
453_C8H6N2S_4-6-13-12 (-15,) energy =    -816.1507809
C           6.0210140     1.0288790     0.0080658
H           6.9091049     1.6532988     0.0000744
C           6.0006485    -0.1995280     0.6706319
H           6.8793125    -0.5579084     1.2000693
C           4.8349471    -0.9582593     0.6514122
H           4.7611662    -1.9181803     1.1499803
C           3.7268742    -0.4582676    -0.0490746
N           3.7325743     0.7306038    -0.6761303
C           4.8592948     1.4459972    -0.6448190
H           4.8308757     2.4012632    -1.1660724
C           1.0325911    -2.8768872     0.1024223
H           0.7707637    -3.8981604     0.3557187
N           2.3277332    -2.4588017     0.2691315
C           2.4627082    -1.2047069    -0.0774045
S           0.9892478    -0.4468304    -0.6702375
C           0.1629680    -1.9417919    -0.3884252
H          -0.8922755    -2.0526675    -0.5972887
17
453_C8H6N2S_4-6-13-12 (0,) energy =    -816.1515228
C           6.0218643     1.0433661     0.0188340
H           6.9088957     1.6692311     0.0135601
C           6.0252153    -0.2186623     0.6152792
H           6.9231135    -0.6040954     1.0906306
C           4.8611261    -0.9797844     0.5937830
H           4.8050445    -1.9658935     1.0406365
C           3.7263490    -0.4414612    -0.0311294
N           3.7142902     0.7727115    -0.6078416
C           4.8403416     1.4887962    -0.5775364
H           4.7957109     2.4667811    -1.0534816
C           1.0130752    -2.8309827     0.2091089
H           0.7222869    -3.8091717     0.5754964
N           2.2945330    -2.3927184     0.4212904
C           2.4704241    -1.1991217    -0.0842778
S           1.0496148    -0.5196188    -0.8692971
C           0.1927244    -1.9688438    -0.4657783
H          -0.8442462    -2.1072699    -0.7394829
17
453_C8H6N2S_4-6-13-12 (15,) energy =    -816.1507809
C           6.0124910     1.0411789     0.0341326
H           6.8987362     1.6682619     0.0317851
C           6.0362600    -0.2509137     0.5616970
H           6.9508923    -0.6611960     0.9811096
C           4.8724939    -1.0124375     0.5365601
H           4.8330697    -2.0219347     0.9300358
C           3.7140668    -0.4397852    -0.0098966
N           3.6862823     0.7974038    -0.5345278
C           4.8132270     1.5124738    -0.5039047
H           4.7546459     2.5112631    -0.9328964
C           0.9663362    -2.7812771     0.3051028
H           0.6342372    -3.7011452     0.7733596
N           2.2322376    -2.3209955     0.5612572
C           2.4660384    -1.2095113    -0.0875870
S           1.1137455    -0.6264860    -1.0510694
C           0.2120710    -2.0126492    -0.5386231
H          -0.8019593    -2.1829973    -0.8735560
17
453_C8H6N2S_4-6-13-12 (30,) energy =    -816.1486222
C           6.0096263     1.0495421     0.0455664
H           6.8938589     1.6794946     0.0471175
C           6.0558627    -0.2693322     0.4997173
H           6.9862370    -0.6996014     0.8603573
C           4.8934467    -1.0330575     0.4707726
H           4.8728028    -2.0633238     0.8083242
C           3.7128474    -0.4343673     0.0056156
N           3.6662809     0.8251348    -0.4611675
C           4.7925986     1.5423793    -0.4289792
H           4.7182505     2.5609754    -0.8058637
C           0.9184802    -2.7117290     0.3890841
H           0.5348902    -3.5567276     0.9499173
N           2.1660212    -2.2249242     0.6858385
C           2.4721386    -1.2182004    -0.0908032
S           1.2060453    -0.7591501    -1.2237209
C           0.2465401    -2.0623232    -0.6097873
H          -0.7386619    -2.2732923    -1.0026164
17
453_C8H6N2S_4-6-13-12 (45,) energy =    -816.1453279
C           6.0044138     1.0557216     0.0607622
H           6.8836619     1.6926956     0.0647148
C           6.0777701    -0.2862106     0.4357478
H           7.0244338    -0.7288068     0.7335423
C           4.9192017    -1.0564191     0.4058738
H           4.9210962    -2.1046584     0.6843308
C           3.7167756    -0.4421509     0.0255894
N           3.6443812     0.8389837    -0.3731528
C           4.7673835     1.5629631    -0.3404575
H           4.6726025     2.6000388    -0.6577053
C           0.8615722    -2.6367183     0.4727386
H           0.4158761    -3.3892315     1.1136102
N           2.0889981    -2.1196214     0.8045845
C           2.4811042    -1.2409017    -0.0799533
S           1.3201648    -0.9371370    -1.3676407
C           0.2879860    -2.1334484    -0.6618588
H          -0.6632082    -2.3933670    -1.1058032
17
453_C8H6N2S_4-6-13-12 (60,) energy =    -816.1415699
C           6.0050532     1.0604179     0.0754018
H           6.8791898     1.7044721     0.0836506
C           6.1026815    -0.3006732     0.3636331
H           7.0632211    -0.7522137     0.5963308
C           4.9473862    -1.0770981     0.3323550
H           4.9697009    -2.1403131     0.5468518
C           3.7277916    -0.4520717     0.0374446
N           3.6298937     0.8495305    -0.2787115
C           4.7494924     1.5798849    -0.2437271
H           4.6353060     2.6338537    -0.4912599
C           0.7885537    -2.5324574     0.5380483
H           0.2668018    -3.1702088     1.2427369
N           1.9932767    -1.9808360     0.9023571
C           2.4884872    -1.2574164    -0.0648904
S           1.4620137    -1.1537038    -1.4918176
C           0.3358732    -2.2102862    -0.7103421
H          -0.5746770    -2.5288080    -1.1990477
17
453_C8H6N2S_4-6-13-12 (75,) energy =    -816.1383119
C           6.0031747     1.0652115     0.0903459
H           6.8745244     1.7129127     0.1080238
C           6.1186628    -0.3112587     0.2777218
H           7.0892169    -0.7714649     0.4417045
C           4.9646331    -1.0908603     0.2405075
H           5.0031059    -2.1660990     0.3815583
C           3.7332070    -0.4563817     0.0348938
N           3.6153519     0.8640976    -0.1760539
C           4.7327578     1.5979399    -0.1353288
H           4.6038070     2.6665108    -0.2988889
C           0.7071563    -2.4096174     0.5822953
H           0.1053098    -2.9131994     1.3303729
N           1.8808055    -1.8043935     0.9679293
C           2.4830183    -1.2589563    -0.0512949
S           1.6145800    -1.4171574    -1.5759808
C           0.3904276    -2.3139995    -0.7424273
H          -0.4709096    -2.7132624    -1.2601355
17
453_C8H6N2S_4-6-13-12 (90,) energy =    -816.1365231
C           6.0081381     1.0626828     0.1150191
H           6.8830373     1.7047123     0.1532477
C           6.1234796    -0.3241396     0.1850527
H           7.0964023    -0.7985375     0.2800132
C           4.9637128    -1.0952814     0.1296377
H           5.0038470    -2.1784588     0.1851773
C           3.7303101    -0.4439887     0.0137432
N           3.6101874     0.8901667    -0.0684318
C           4.7322817     1.6155140    -0.0119636
H           4.6027852     2.6946138    -0.0758556
C           0.6288865    -2.2717687     0.6000741
H          -0.0538815    -2.6280654     1.3631665
N           1.7575493    -1.5835225     0.9837752
C           2.4652856    -1.2318563    -0.0508379
S           1.7786540    -1.7202752    -1.5992188
C           0.4615809    -2.4498374    -0.7427428
H          -0.3408365    -2.9558339    -1.2617383
17
453_C8H6N2S_4-6-13-12 (105,) energy =    -816.1366672
C           6.0129523     1.0621888     0.1464789
H           6.8945798     1.6926589     0.2124030
C           6.1173998    -0.3260690     0.0930341
H           7.0877361    -0.8142142     0.1210125
C           4.9491970    -1.0818535     0.0105657
H           4.9819829    -2.1662950    -0.0233301
C           3.7185049    -0.4143875    -0.0179995
N           3.6080125     0.9224009     0.0344200
C           4.7381684     1.6317161     0.1152887
H           4.6167867     2.7129087     0.1562788
C           0.5617661    -2.1353221     0.5833746
H          -0.1979401    -2.3494233     1.3266952
N           1.6351346    -1.3502862     0.9356108
C           2.4454515    -1.1864731    -0.0699262
S           1.9465634    -2.0173958    -1.5444675
C           0.5468511    -2.5938775    -0.7024815
H          -0.1919041    -3.2154838    -1.1893350
17
453_C8H6N2S_4-6-13-12 (120,) energy =    -816.1380612
C           6.0132451     1.0592003     0.1664660
H           6.8965443     1.6855509     0.2468968
C           6.1154377    -0.3212349     0.0092052
H           7.0859614    -0.8082510    -0.0295614
C           4.9456242    -1.0726760    -0.0845717
H           4.9793216    -2.1524690    -0.1903043
C           3.7129839    -0.4080592    -0.0267147
N           3.6055677     0.9215084     0.1320993
C           4.7373000     1.6251753     0.2246652
H           4.6174229     2.7000780     0.3504200
C           0.4987869    -2.0192207     0.5427379
H          -0.3318824    -2.1117589     1.2334495
N           1.5338603    -1.1717916     0.8561577
C           2.4417508    -1.1737919    -0.0777284
S           2.0881302    -2.2592006    -1.4261504
C           0.6096224    -2.6967582    -0.6382854
H          -0.0814355    -3.4012686    -1.0801369
17
453_C8H6N2S_4-6-13-12 (135,) energy =    -816.1395301
C           6.0124415     1.0572350     0.1742589
H           6.8930826     1.6873274     0.2541181
C           6.1174045    -0.3105752    -0.0686716
H           7.0889972    -0.7849253    -0.1762427
C           4.9512012    -1.0673641    -0.1561066
H           4.9934128    -2.1396793    -0.3197197
C           3.7146408    -0.4208760    -0.0099376
N           3.6062401     0.8969233     0.2317818
C           4.7349918     1.6042053     0.3203791
H           4.6119554     2.6684436     0.5154393
C           0.4390369    -1.9243715     0.4768262
H          -0.4555701    -1.9125014     1.0894403
N           1.4516600    -1.0429938     0.7610759
C           2.4485126    -1.1866593    -0.0662617
S           2.2030245    -2.4560204    -1.2740253
C           0.6504142    -2.7693784    -0.5763295
H          -0.0061746    -3.5307288    -0.9742506
17
453_C8H6N2S_4-6-13-12 (150,) energy =    -816.1404072
C           6.0095339     1.0587141     0.1784864
H           6.8855304     1.6959990     0.2515679
C           6.1180021    -0.2930640    -0.1412195
H           7.0885723    -0.7479193    -0.3190559
C           4.9584468    -1.0602452    -0.2155334
H           5.0112493    -2.1221836    -0.4353953
C           3.7206296    -0.4414713     0.0212166
N           3.6104269     0.8616916     0.3336022
C           4.7331936     1.5784003     0.4099586
H           4.6062777     2.6292787     0.6659283
C           0.3877161    -1.8442670     0.3969860
H          -0.5602755    -1.7405179     0.9131056
N           1.3884367    -0.9443114     0.6569032
C           2.4591374    -1.2103187    -0.0384723
S           2.2938513    -2.6255177    -1.0916911
C           0.6766581    -2.8251284    -0.5103129
H           0.0436918    -3.6272868    -0.8638363
17
453_C8H6N2S_4-6-13-12 (165,) energy =    -816.1406186
C           6.0076058     1.0592132     0.1875861
H           6.8804503     1.7009528     0.2588673
C           6.1128744    -0.2716330    -0.2117145
H           7.0780108    -0.7051081    -0.4588790
C           4.9581443    -1.0455424    -0.2809656
H           5.0160626    -2.0907934    -0.5696826
C           3.7251282    -0.4570785     0.0447065
N           3.6194110     0.8264797     0.4316968
C           4.7372899     1.5504799     0.4998756
H           4.6115366     2.5842626     0.8186149
C           0.3458782    -1.7736121     0.3007773
H          -0.6443672    -1.5876338     0.7016311
N           1.3369865    -0.8551534     0.5244551
C           2.4647407    -1.2268070    -0.0159535
S           2.3652626    -2.7787873    -0.8697877
C           0.6966099    -2.8772492    -0.4257497
H           0.0830923    -3.7177295    -0.7194674
17
453_C8H6N2S_4-6-13-12 (180,) energy =    -816.1405824
C           6.0058210     1.0540955     0.2080175
H           6.8785677     1.6948695     0.2884019
C           6.1005856    -0.2484987    -0.2778167
H           7.0566907    -0.6589469    -0.5906280
C           4.9464620    -1.0219054    -0.3575128
H           4.9975114    -2.0396681    -0.7329687
C           3.7243037    -0.4649170     0.0539473
N           3.6292773     0.7917176     0.5232690
C           4.7451959     1.5180840     0.5926552
H           4.6266242     2.5298868     0.9778573
C           0.3154492    -1.7231081     0.1884465
H          -0.7055934    -1.4733875     0.4548618
N           1.2958933    -0.7825343     0.3580324
C           2.4640615    -1.2352381    -0.0065265
S           2.4206468    -2.9068725    -0.6019227
C           0.7152977    -2.9290804    -0.3159540
H           0.1192111    -3.8055964    -0.5291925
