21
292_C8H11NO_19-8-9-10 (-165,) energy =    -441.4457300
O           3.3595315     1.2152891    -1.8147512
C           5.0216829     0.4973778     1.8350281
H           5.3848634     0.2410155     2.8232608
C           4.5234121     1.7931188     1.5289547
H           4.5257611     2.5719663     2.2876824
C           4.0297146     2.0426908     0.2854787
H           3.6092250     3.0031544     0.0087908
C           3.9492332     1.0279039    -0.7535718
N           4.6099683    -0.2038960    -0.4396473
C           4.6794645    -1.3564876    -1.4134966
C           4.5387776    -0.9636469    -2.8925547
H           3.5638690    -0.5480240    -3.1256433
H           4.7023887    -1.8696055    -3.4876632
H           5.2973340    -0.2285325    -3.1806017
H           3.8432000    -2.0220933    -1.1586472
C           5.9990420    -2.1350816    -1.2492108
H           6.0463214    -2.9060593    -2.0239502
H           6.1055548    -2.6486243    -0.2903407
H           6.8579617    -1.4677301    -1.3819708
C           5.0395940    -0.4398924     0.8459705
H           5.4100646    -1.4352417     1.0435690
21
292_C8H11NO_19-8-9-10 (-150,) energy =    -441.4491675
O           3.0515214     0.8929171    -1.6720533
C           5.1965160     0.5957859     1.7546803
H           5.6784955     0.4187458     2.7089150
C           4.4749449     1.7910279     1.4884877
H           4.4195267     2.5728692     2.2420888
C           3.8358445     1.9370014     0.2943852
H           3.2291810     2.8046087     0.0597996
C           3.8139517     0.8862953    -0.7070142
N           4.7420882    -0.1827268    -0.4828158
C           4.7430538    -1.3353953    -1.4512454
C           4.8199206    -0.8785668    -2.9176314
H           3.9786187    -0.2474547    -3.1850279
H           4.8254455    -1.7698672    -3.5548154
H           5.7518691    -0.3295528    -3.1035954
H           3.7703737    -1.8290249    -1.3188286
C           5.8490799    -2.3542335    -1.1574996
H           5.8437304    -3.1009155    -1.9569605
H           5.7066921    -2.8959132    -0.2174363
H           6.8393375    -1.8841067    -1.1484950
C           5.2824878    -0.3459365     0.7718499
H           5.8496124    -1.2512477     0.9301426
21
292_C8H11NO_19-8-9-10 (-135,) energy =    -441.4543023
O           2.9258076     0.7340278    -1.6138024
C           5.3147895     0.6846112     1.6759000
H           5.8994496     0.5820241     2.5823824
C           4.4414485     1.7857925     1.4685511
H           4.3625811     2.5649121     2.2229511
C           3.6889987     1.8506729     0.3329734
H           2.9769100     2.6481332     0.1519985
C           3.7154470     0.8068610    -0.6717831
N           4.7367761    -0.1795463    -0.4921941
C           4.7370789    -1.3117414    -1.4745830
C           4.9799562    -0.8060338    -2.9054280
H           4.2418010    -0.0571818    -3.1829894
H           4.9062989    -1.6512103    -3.5988229
H           5.9862736    -0.3787403    -2.9998730
H           3.7132706    -1.7051398    -1.4434841
C           5.7032304    -2.4386154    -1.1128852
H           5.6182584    -3.2138381    -1.8804729
H           5.4724564    -2.9074591    -0.1507279
H           6.7464604    -2.1013016    -1.1020844
C           5.4113013    -0.2639638     0.6986681
H           6.0814969    -1.1049176     0.8073864
21
292_C8H11NO_19-8-9-10 (-120,) energy =    -441.4580717
O           2.8436662     0.6259515    -1.5562007
C           5.4241726     0.7377515     1.6018056
H           6.0968647     0.7016252     2.4504277
C           4.4445004     1.7571062     1.4659782
H           4.3656389     2.5339006     2.2228160
C           3.5961161     1.7547440     0.3966176
H           2.8185402     2.5000028     0.2711459
C           3.6409455     0.7272481    -0.6221471
N           4.7043023    -0.2156300    -0.4772396
C           4.7296923    -1.3145361    -1.4884473
C           5.1136076    -0.7647202    -2.8699874
H           4.4430979     0.0452975    -3.1559598
H           5.0334516    -1.5632950    -3.6160534
H           6.1481742    -0.3998025    -2.8713784
H           3.6875192    -1.6460537    -1.5509069
C           5.5985822    -2.5033004    -1.0836961
H           5.4685112    -3.2892022    -1.8342639
H           5.3105214    -2.9215863    -0.1133030
H           6.6659900    -2.2537620    -1.0586020
C           5.5062568    -0.2194075     0.6301897
H           6.2415660    -1.0106964     0.6836690
21
292_C8H11NO_19-8-9-10 (-105,) energy =    -441.4600452
O           2.7448553     0.5600559    -1.4756174
C           5.5128026     0.7984216     1.5206505
H           6.2626061     0.8215152     2.3024201
C           4.4526265     1.7428447     1.4724897
H           4.3848894     2.5150318     2.2351305
C           3.5186677     1.6816657     0.4781080
H           2.6921722     2.3807687     0.4153907
C           3.5615924     0.6736850    -0.5597339
N           4.6575218    -0.2346703    -0.4619597
C           4.7071593    -1.2930012    -1.5089410
C           5.2279758    -0.7070751    -2.8280420
H           4.6128039     0.1423442    -3.1309274
H           5.1812363    -1.4659930    -3.6171910
H           6.2705314    -0.3810495    -2.7283144
H           3.6581205    -1.5625810    -1.6595971
C           5.4809122    -2.5380978    -1.0770904
H           5.3199318    -3.3201122    -1.8259932
H           5.1349752    -2.9225793    -0.1115079
H           6.5623693    -2.3666672    -1.0205375
C           5.5711283    -0.1619760     0.5501051
H           6.3561340    -0.9069585     0.5374643
21
292_C8H11NO_19-8-9-10 (-90,) energy =    -441.4606674
O           2.6022907     0.4492351    -1.3667191
C           5.5720104     0.8805578     1.4091680
H           6.3883154     0.9747555     2.1153139
C           4.4382186     1.7365371     1.4577480
H           4.3787828     2.5067347     2.2231192
C           3.4271485     1.5978855     0.5504836
H           2.5510936     2.2368426     0.5571228
C           3.4623966     0.5992350    -0.4976042
N           4.6099550    -0.2477499    -0.4683671
C           4.6822742    -1.2822185    -1.5337250
C           5.3470471    -0.7017413    -2.7877904
H           4.8041926     0.1846788    -3.1267203
H           5.3369788    -1.4405764    -3.5970524
H           6.3901640    -0.4252087    -2.5909758
H           3.6349784    -1.4818929    -1.7697265
C           5.3415413    -2.5787963    -1.0585860
H           5.1800754    -3.3522072    -1.8165867
H           4.9052601    -2.9309742    -0.1178208
H           6.4257144    -2.4828599    -0.9265176
C           5.6141001    -0.0832134     0.4417908
H           6.4492469    -0.7675442     0.3550039
21
292_C8H11NO_19-8-9-10 (-75,) energy =    -441.4608032
O           2.4621908     0.2742993    -1.1619468
C           5.6511511     0.9716622     1.3057013
H           6.5202909     1.1364678     1.9312114
C           4.4526908     1.7182934     1.4757736
H           4.3980721     2.4753973     2.2544648
C           3.3749442     1.4925505     0.6688236
H           2.4491713     2.0477085     0.7712777
C           3.3939007     0.5036350    -0.3903456
N           4.6172040    -0.2247339    -0.4908173
C           4.7058112    -1.2489288    -1.5635491
C           5.5371035    -0.7241437    -2.7397146
H           5.1171800     0.2122853    -3.1193778
H           5.5377619    -1.4549678    -3.5559982
H           6.5793888    -0.5435909    -2.4484562
H           3.6710550    -1.3575927    -1.8928601
C           5.2025847    -2.5967596    -1.0322542
H           5.1049280    -3.3518175    -1.8195669
H           4.6097952    -2.9236812    -0.1718643
H           6.2581334    -2.5727947    -0.7362556
C           5.6854503     0.0252781     0.3220728
H           6.5676860    -0.5775767     0.1385695
21
292_C8H11NO_19-8-9-10 (-60,) energy =    -441.4608790
O           2.3284837     0.0668056    -0.9589680
C           5.6639738     1.0993787     1.1771761
H           6.5666926     1.3436758     1.7241928
C           4.4177558     1.7184417     1.4723371
H           4.3614298     2.4593661     2.2663235
C           3.2958994     1.3891099     0.7679029
H           2.3320335     1.8426761     0.9703297
C           3.3099779     0.4070942    -0.2982378
N           4.5922595    -0.1683304    -0.5471687
C           4.6861212    -1.1844743    -1.6268616
C           5.6724642    -0.7531843    -2.7174219
H           5.4178164     0.2384523    -3.1047738
H           5.6335354    -1.4648163    -3.5492379
H           6.7077475    -0.7265764    -2.3564172
H           3.6787702    -1.1992888    -2.0459052
C           5.0016545    -2.5690226    -1.0497738
H           4.9808385    -3.3185941    -1.8484147
H           4.2612360    -2.8529998    -0.2954282
H           5.9957180    -2.6036442    -0.5871857
C           5.7004364     0.1752011     0.1730904
H           6.6167352    -0.3350700    -0.1029167
21
292_C8H11NO_19-8-9-10 (-45,) energy =    -441.4607118
O           2.3282516    -0.1838436    -0.7752075
C           5.7002991     1.2316065     1.0559038
H           6.6149872     1.5672350     1.5297637
C           4.4253092     1.7076046     1.4677312
H           4.3576811     2.4320079     2.2759459
C           3.2889520     1.2599332     0.8575354
H           2.3022021     1.5994298     1.1522167
C           3.3190477     0.2852958    -0.2138945
N           4.6302760    -0.1215926    -0.6023720
C           4.7164171    -1.1269181    -1.6935392
C           5.8298629    -0.8085642    -2.6949836
H           5.7671544     0.2273193    -3.0442202
H           5.7243260    -1.4665223    -3.5639936
H           6.8327458    -0.9772549    -2.2852240
H           3.7508174    -1.0407717    -2.1949867
C           4.8290342    -2.5387665    -1.1063012
H           4.8249236    -3.2840062    -1.9095620
H           3.9827335    -2.7445118    -0.4444057
H           5.7578292    -2.6600630    -0.5351576
C           5.7520673     0.3290374     0.0321417
H           6.6919649    -0.0717051    -0.3290977
21
292_C8H11NO_19-8-9-10 (-30,) energy =    -441.4605282
O           2.3857892    -0.3688009    -0.6110247
C           5.7294904     1.3712725     0.9692006
H           6.6406235     1.8026084     1.3662758
C           4.4510509     1.7181811     1.4836082
H           4.3755878     2.4361775     2.2968080
C           3.3206134     1.1564898     0.9625669
H           2.3303734     1.3992890     1.3316907
C           3.3653450     0.1892590    -0.1136474
N           4.6763076    -0.1011247    -0.5953699
C           4.7493797    -1.0904561    -1.7043857
C           5.9519733    -0.8720824    -2.6238684
H           6.0252840     0.1683322    -2.9584139
H           5.8305577    -1.5028672    -3.5104162
H           6.9015281    -1.1579549    -2.1564148
H           3.8299167    -0.9196049    -2.2689190
C           4.7002605    -2.5156826    -1.1385765
H           4.6801909    -3.2450055    -1.9562309
H           3.7987516    -2.6510465    -0.5361651
H           5.5802238    -2.7222790    -0.5172403
C           5.7925831     0.4713232    -0.0571743
H           6.7375911     0.1706911    -0.4918143
21
292_C8H11NO_19-8-9-10 (-15,) energy =    -441.4594538
O           2.4139022    -0.4791183    -0.5228119
C           5.7080034     1.4743932     0.8955597
H           6.6025210     1.9883927     1.2265490
C           4.4427438     1.7136009     1.4952734
H           4.3607192     2.4252866     2.3133451
C           3.3317041     1.0606423     1.0438834
H           2.3476180     1.2282187     1.4672948
C           3.3852860     0.1123676    -0.0481643
N           4.6906639    -0.1132813    -0.5795753
C           4.7548797    -1.0659784    -1.7248186
C           6.0292648    -0.9288159    -2.5576180
H           6.1948619     0.0976149    -2.9030715
H           5.9294477    -1.5651470    -3.4426180
H           6.9206361    -1.2673487    -2.0169639
H           3.8855381    -0.8158095    -2.3390058
C           4.5835470    -2.5050922    -1.2149070
H           4.5608544    -3.1997516    -2.0621488
H           3.6472738    -2.6040924    -0.6633432
H           5.4194141    -2.7870295    -0.5633389
C           5.7820544     0.5733919    -0.1294419
H           6.7207861     0.3533684    -0.6201229
21
292_C8H11NO_19-8-9-10 (0,) energy =    -441.4571152
O           2.4527079    -0.5794886    -0.4619517
C           5.6697368     1.5669749     0.8263058
H           6.5335976     2.1630625     1.0954434
C           4.4289193     1.6975908     1.5052448
H           4.3357975     2.4018550     2.3285001
C           3.3535647     0.9533010     1.1151774
H           2.3814326     1.0455131     1.5866061
C           3.4177332     0.0299331     0.0018069
N           4.7188519    -0.1402168    -0.5647930
C           4.7853846    -1.0485712    -1.7499485
C           6.1212681    -0.9816006    -2.4908248
H           6.3573339     0.0227638    -2.8595228
H           6.0596730    -1.6426547    -3.3608138
H           6.9526647    -1.3357605    -1.8708719
H           3.9722847    -0.7276081    -2.4083797
C           4.5179400    -2.4991417    -1.3114952
H           4.4982110    -3.1498829    -2.1928856
H           3.5590042    -2.5791736    -0.8006134
H           5.3159453    -2.8499786    -0.6461835
C           5.7617413     0.6646364    -0.1953264
H           6.6884887     0.5235053    -0.7339107
21
292_C8H11NO_19-8-9-10 (15,) energy =    -441.4532990
O           2.4762384    -0.6309290    -0.3564909
C           5.6390122     1.6674704     0.7494531
H           6.4688353     2.3366504     0.9436032
C           4.4496166     1.7045582     1.5261955
H           4.3661144     2.4021578     2.3561112
C           3.4089852     0.8806557     1.2135566
H           2.4656293     0.9056761     1.7476383
C           3.4518973    -0.0184828     0.0774818
N           4.7357000    -0.1481222    -0.5425238
C           4.7918145    -1.0243786    -1.7576272
C           6.1794222    -1.0554626    -2.4053531
H           6.4975081    -0.0880523    -2.8092062
H           6.1465190    -1.7568642    -3.2443438
H           6.9409287    -1.4139187    -1.7039572
H           4.0466924    -0.6304311    -2.4570509
C           4.4172786    -2.4725313    -1.3862015
H           4.4296371    -3.0895903    -2.2914883
H           3.4266744    -2.5258792    -0.9401458
H           5.1539949    -2.8837935    -0.6856808
C           5.7260535     0.7607643    -0.2672591
H           6.6211906     0.6871197    -0.8679835
21
292_C8H11NO_19-8-9-10 (30,) energy =    -441.4485091
O           2.5085816    -0.7488690    -0.1917067
C           5.5663653     1.7710721     0.6582563
H           6.3411248     2.5205424     0.7691237
C           4.4609812     1.6960216     1.5493523
H           4.3927300     2.3820807     2.3901544
C           3.4795015     0.7782998     1.3259841
H           2.5897385     0.7146998     1.9425226
C           3.4880058    -0.0989638     0.1689337
N           4.7308992    -0.1459464    -0.5437659
C           4.8094909    -1.0033086    -1.7774537
C           6.2535284    -1.1336190    -2.2871630
H           6.6673427    -0.2097357    -2.7044529
H           6.2689033    -1.8741695    -3.0917492
H           6.9169487    -1.4880011    -1.4908365
H           4.1705948    -0.5373214    -2.5369825
C           4.3111854    -2.4366053    -1.5020775
H           4.4326664    -3.0285229    -2.4157749
H           3.2693893    -2.4570216    -1.1972499
H           4.9212255    -2.9004423    -0.7174943
C           5.6445009     0.8669620    -0.3594793
H           6.4832910     0.8784046    -1.0397438
21
292_C8H11NO_19-8-9-10 (45,) energy =    -441.4457546
O           2.7681005    -1.1829665     0.2623186
C           5.4344976     1.8987184     0.5002185
H           6.1125022     2.7439976     0.4958250
C           4.4905060     1.6960412     1.5436730
H           4.4490302     2.3855913     2.3833452
C           3.6332938     0.6414318     1.4741825
H           2.8810210     0.4526924     2.2320412
C           3.6136033    -0.2975789     0.3628437
N           4.6560816    -0.1061507    -0.6004275
C           4.8580121    -1.0131748    -1.7918409
C           6.3573766    -1.2808935    -2.0274566
H           6.9409652    -0.3922830    -2.2795064
H           6.4602875    -1.9752285    -2.8669949
H           6.8062392    -1.7485178    -1.1438362
H           4.4644053    -0.4598241    -2.6560538
C           4.1302013    -2.3634971    -1.7309275
H           4.4169353    -2.9221776    -2.6299191
H           3.0497527    -2.2586316    -1.7019348
H           4.4344148    -2.9454781    -0.8563178
C           5.4763990     0.9945405    -0.5182133
H           6.1709529     1.1239570    -1.3362826
21
292_C8H11NO_19-8-9-10 (60,) energy =    -441.4495680
O           3.3623353    -1.5576571     0.6342568
C           5.2858535     2.0344416     0.3400152
H           5.8518743     2.9541361     0.2516976
C           4.4688323     1.7581873     1.4722936
H           4.3954996     2.4848459     2.2778226
C           3.7873909     0.5815765     1.5432925
H           3.1705278     0.3183915     2.3954589
C           3.8801539    -0.4492821     0.5201988
N           4.6241031    -0.0677138    -0.6378148
C           4.9127850    -1.0128756    -1.7714696
C           6.3918823    -1.4291623    -1.7760802
H           7.0686631    -0.5702824    -1.7862314
H           6.5971749    -2.0309681    -2.6680619
H           6.6263418    -2.0378322    -0.8950967
H           4.7547313    -0.3882169    -2.6625208
C           3.9746909    -2.2120997    -1.9223661
H           4.1785286    -2.6539525    -2.9059878
H           2.9252206    -1.9140940    -1.8894843
H           4.1318080    -2.9658952    -1.1523470
C           5.3388673     1.1056530    -0.6547868
H           5.9186627     1.2785208    -1.5549749
21
292_C8H11NO_19-8-9-10 (75,) energy =    -441.4539422
O           3.7522582    -1.7064041     0.7097685
C           5.1358923     2.1040158     0.2577297
H           5.5892812     3.0802614     0.1341890
C           4.4293893     1.7477989     1.4412685
H           4.3211090     2.4726003     2.2445713
C           3.9031934     0.4972839     1.5705986
H           3.3876810     0.1749528     2.4685511
C           4.0689481    -0.5283313     0.5538330
N           4.6418940    -0.0613437    -0.6647546
C           4.9529060    -1.0082407    -1.7810938
C           6.3754655    -1.5626407    -1.6334686
H           7.1107553    -0.7552250    -1.5529231
H           6.6308637    -2.1739299    -2.5061887
H           6.4525372    -2.1918987    -0.7402869
H           4.9483817    -0.3577974    -2.6660316
C           3.8960237    -2.0845526    -2.0405747
H           4.0922838    -2.5131089    -3.0309218
H           2.8909343    -1.6521032    -2.0521956
H           3.9167190    -2.8736314    -1.2918924
C           5.2255165     1.1789715    -0.7390286
H           5.7317527     1.3942311    -1.6748685
21
292_C8H11NO_19-8-9-10 (90,) energy =    -441.4573727
O           4.0352918    -1.7724959     0.7269792
C           4.9997563     2.1579726     0.1867339
H           5.3329878     3.1767378     0.0289209
C           4.4077653     1.7417138     1.4116546
H           4.2688529     2.4618793     2.2144128
C           4.0281667     0.4428486     1.5835455
H           3.6013331     0.0813432     2.5125563
C           4.2344643    -0.5685244     0.5629640
N           4.7058666    -0.0614740    -0.6817056
C           5.0211360    -1.0087022    -1.7917782
C           6.3687947    -1.6969039    -1.5444403
H           7.1650559    -0.9582159    -1.4023055
H           6.6311726    -2.3241368    -2.4038013
H           6.3152194    -2.3320880    -0.6555999
H           5.1388368    -0.3534564    -2.6638240
C           3.8801845    -1.9754361    -2.1230916
H           4.1031127    -2.4577600    -3.0820184
H           2.9341504    -1.4338587    -2.2296673
H           3.7587516    -2.7355855    -1.3534188
C           5.1360832     1.2338098    -0.8071324
H           5.5656093     1.4872751    -1.7711546
21
292_C8H11NO_19-8-9-10 (105,) energy =    -441.4593980
O           5.4275179     1.2614183    -1.9131022
C           4.0627618     0.3214438     1.8261755
H           3.6690122     0.0360594     2.7943054
C           4.3300210     1.6780383     1.4947703
H           4.1439721     2.4585529     2.2286363
C           4.8118394     2.0019691     0.2597745
H           5.0136881     3.0263428    -0.0331476
C           5.0571746     1.0062246    -0.7657078
N           4.8306656    -0.3364758    -0.3497998
C           5.0227636    -1.4454696    -1.3288315
C           3.9444730    -1.4089762    -2.4186223
H           2.9428971    -1.4359792    -1.9756211
H           4.0528714    -2.2813382    -3.0729302
H           4.0407033    -0.5036478    -3.0218070
H           4.8688279    -2.3547537    -0.7361378
C           6.4517059    -1.4989628    -1.8805071
H           6.5710584    -2.4155048    -2.4695013
H           7.1806261    -1.5238659    -1.0630441
H           6.6612336    -0.6361529    -2.5124288
C           4.3196265    -0.6330040     0.8850110
H           4.1451521    -1.6872005     1.0742702
21
292_C8H11NO_19-8-9-10 (120,) energy =    -441.4597901
O           5.2698375     1.2617114    -1.9605058
C           4.1984422     0.3204413     1.8751602
H           3.9269195     0.0311454     2.8832958
C           4.3569481     1.6829100     1.5018486
H           4.2017265     2.4655193     2.2406289
C           4.7043923     2.0094013     0.2231102
H           4.8390331     3.0369516    -0.0960748
C           4.9324333     1.0095903    -0.8020401
N           4.7360245    -0.3330271    -0.3704262
C           4.9521386    -1.4504224    -1.3348629
C           3.9850524    -1.3730681    -2.5226242
H           2.9466513    -1.3286672    -2.1759649
H           4.0994441    -2.2720528    -3.1388914
H           4.1916105    -0.4934023    -3.1329377
H           4.7105271    -2.3538100    -0.7637912
C           6.4217838    -1.5397077    -1.7644408
H           6.5636016    -2.4246779    -2.3950313
H           7.0777601    -1.6342119    -0.8919911
H           6.7103375    -0.6522114    -2.3298995
C           4.3971436    -0.6349594     0.9207925
H           4.2899855    -1.6928146     1.1374485
21
292_C8H11NO_19-8-9-10 (135,) energy =    -441.4585467
O           5.1007202     1.2819095    -1.9922963
C           4.3456700     0.3209907     1.9074388
H           4.2019199     0.0261567     2.9400148
C           4.3914619     1.6871199     1.5150913
H           4.2695244     2.4669308     2.2629948
C           4.5977279     2.0187361     0.2079054
H           4.6622383     3.0485000    -0.1257700
C           4.8041016     1.0213268    -0.8253089
N           4.6425847    -0.3241605    -0.3868565
C           4.8754145    -1.4471539    -1.3424389
C           4.0330840    -1.3315483    -2.6186375
H           2.9753774    -1.1805285    -2.3757012
H           4.1193935    -2.2685599    -3.1808880
H           4.3698151    -0.5033292    -3.2398082
H           4.5431292    -2.3398780    -0.8011350
C           6.3729485    -1.5860208    -1.6476547
H           6.5412761    -2.4514573    -2.2984102
H           6.9509909    -1.7314842    -0.7282508
H           6.7375213    -0.6904092    -2.1563671
C           4.4826430    -0.6302297     0.9390043
H           4.4454664    -1.6903945     1.1680288
21
292_C8H11NO_19-8-9-10 (150,) energy =    -441.4557141
O           4.8661696     1.3126216    -2.0294445
C           4.5027276     0.3195483     1.9115942
H           4.4919068     0.0209599     2.9530306
C           4.4191487     1.6849626     1.5196480
H           4.3250503     2.4592898     2.2772017
C           4.4718268     2.0206990     0.1992794
H           4.4453788     3.0506765    -0.1389613
C           4.6534775     1.0328158    -0.8501739
N           4.5729955    -0.3187770    -0.4057333
C           4.8144061    -1.4495871    -1.3538262
C           4.1165688    -1.3000208    -2.7107015
H           3.0658090    -1.0168653    -2.5878182
H           4.1454983    -2.2734505    -3.2150116
H           4.6007852    -0.5512771    -3.3330057
H           4.3842706    -2.3218951    -0.8488207
C           6.3251749    -1.6643768    -1.5274118
H           6.5112554    -2.5282915    -2.1752666
H           6.8176214    -1.8448289    -0.5653549
H           6.7756568    -0.7815696    -1.9908171
C           4.5904173    -0.6244599     0.9319383
H           4.6391423    -1.6842557     1.1616467
21
292_C8H11NO_19-8-9-10 (165,) energy =    -441.4518436
O           4.4904422     1.3993353    -2.0365930
C           4.6709969     0.3465933     1.9057687
H           4.7918697     0.0393992     2.9377421
C           4.4526685     1.7062457     1.5452979
H           4.3907588     2.4680265     2.3187111
C           4.3317941     2.0491540     0.2326123
H           4.1918903     3.0754801    -0.0884485
C           4.4567270     1.0843202    -0.8491248
N           4.5390265    -0.2733730    -0.4185756
C           4.7508303    -1.4139244    -1.3699499
C           4.2204751    -1.2070937    -2.7929070
H           3.1921085    -0.8365264    -2.7977571
H           4.2320655    -2.1862252    -3.2882015
H           4.8308317    -0.5078238    -3.3597106
H           4.1981536    -2.2481278    -0.9210378
C           6.2462805    -1.7699427    -1.4182488
H           6.4023952    -2.6457900    -2.0577256
H           6.6499047    -1.9973957    -0.4259174
H           6.8163515    -0.9340685    -1.8374584
C           4.7182699    -0.5802737     0.9085887
H           4.8574191    -1.6355611     1.1205229
21
292_C8H11NO_19-8-9-10 (180,) energy =    -441.4478147
O           3.9835392     1.3849624    -1.9996816
C           4.8465455     0.3925094     1.8745526
H           5.0816361     0.0952218     2.8896449
C           4.5117617     1.7340668     1.5399855
H           4.4939949     2.4985808     2.3129532
C           4.2118675     2.0513735     0.2508939
H           3.9542281     3.0597442    -0.0536335
C           4.2288214     1.0818649    -0.8348002
N           4.5531928    -0.2518718    -0.4336070
C           4.7170904    -1.4051482    -1.3905876
C           4.3818872    -1.1269347    -2.8604340
H           3.3684774    -0.7520707    -2.9998404
H           4.4787877    -2.0826577    -3.3909336
H           5.0676727    -0.4059936    -3.3052840
H           4.0348332    -2.1817206    -1.0210531
C           6.1641280    -1.9338539    -1.3256418
H           6.2647645    -2.7983065    -1.9902958
H           6.4707881    -2.2499164    -0.3247618
H           6.8607139    -1.1597419    -1.6659227
C           4.8615056    -0.5335140     0.8759144
H           5.0805961    -1.5739976     1.0850174
