21
113_C9H8N2O2_16-0-8-9 (-165,) energy =    -607.7162399
C           2.5554055    -1.4464294    -0.3993063
H           2.7226365    -2.4704541    -0.7471446
H           2.1472355    -1.5409426     0.6188657
C           6.2782347     0.7005922    -0.0162256
H           7.1908715     1.2770811     0.0846354
C           5.1248994     1.4023486    -0.5473292
N           3.9713043     0.5883730    -0.6435142
H           3.1383499     1.0503872    -1.0136206
C           3.8928328    -0.7287845    -0.3048555
C           5.0007021    -1.3614391     0.1973664
H           4.9525781    -2.4080149     0.4762087
C           6.2062561    -0.6172623     0.3367211
H           7.0870692    -1.1176383     0.7327659
C           0.1463303     0.4319883    -2.3312568
H          -0.2649051     1.3485589    -2.7276954
N           1.2932310     0.4258052    -1.5449185
C           1.4993051    -0.8248279    -1.2588630
O           0.5697868    -1.6625544    -1.7903412
C          -0.2925004    -0.8405618    -2.4740266
H          -1.1160787    -1.3184241    -2.9789995
O           5.0719338     2.5780598    -0.8965074
21
113_C9H8N2O2_16-0-8-9 (-150,) energy =    -607.7172014
C           2.4517174    -1.3728343    -0.2069908
H           2.5673625    -2.4449230    -0.3836564
H           2.0326216    -1.2658904     0.8052717
C           6.2485390     0.6648038    -0.1244431
H           7.1780370     1.2220281    -0.0932090
C           5.0574408     1.4157924    -0.4793869
N           3.8843384     0.6260476    -0.4894511
H           3.0321597     1.1123158    -0.7722899
C           3.8188603    -0.7110865    -0.2278236
C           4.9621223    -1.3915239     0.0969363
H           4.9244188    -2.4529484     0.3130429
C           6.1915192    -0.6723459     0.1465008
H           7.1017099    -1.2090977     0.4042337
C           0.1554845     0.3600297    -2.3871013
H          -0.2833002     1.2561869    -2.8006153
N           1.1707221     0.4131863    -1.4387483
C           1.4533618    -0.8291022    -1.1815226
O           0.6984909    -1.7156518    -1.8809040
C          -0.1321652    -0.9371528    -2.6494531
H          -0.8248488    -1.4576415    -3.2904901
O           4.9938251     2.6101776    -0.7540360
21
113_C9H8N2O2_16-0-8-9 (-135,) energy =    -607.7173813
C           2.3758990    -1.2636410    -0.0227105
H           2.4467637    -2.3527616    -0.0607026
H           1.9500846    -0.9977740     0.9552212
C           6.2408414     0.6248107    -0.2470517
H           7.1881215     1.1497210    -0.2979880
C           5.0451005     1.4353058    -0.4061719
N           3.8504843     0.6843730    -0.3173586
H           2.9946506     1.2086716    -0.4971600
C           3.7664322    -0.6658636    -0.1293013
C           4.9120587    -1.4023563    -0.0018759
H           4.8589831    -2.4737837     0.1514966
C           6.1662972    -0.7251660    -0.0595598
H           7.0799261    -1.3057782     0.0454950
C           0.2030368     0.3264162    -2.4186255
H          -0.2671748     1.1956587    -2.8547153
N           1.0629413     0.4273380    -1.3307130
C           1.4326092    -0.7945554    -1.0869895
O           0.8833488    -1.7115893    -1.9241788
C           0.0930941    -0.9764179    -2.7738176
H          -0.4471472    -1.5262195    -3.5272060
O           4.9970089     2.6451267    -0.6032434
21
113_C9H8N2O2_16-0-8-9 (-120,) energy =    -607.7165679
C           2.3275761    -1.1495136     0.1402285
H           2.3592255    -2.2376559     0.2305249
H           1.8985467    -0.7477314     1.0668263
C           6.2418191     0.5727508    -0.3656671
H           7.2015848     1.0602460    -0.4945331
C           5.0781384     1.4430687    -0.3230339
N           3.8665739     0.7370454    -0.1422125
H           3.0273011     1.3104443    -0.1919912
C           3.7371727    -0.6200274    -0.0340472
C           4.8501208    -1.4103647    -0.1053876
H           4.7610087    -2.4870582    -0.0225206
C           6.1219092    -0.7831208    -0.2675967
H           7.0110090    -1.4074901    -0.3166384
C           0.2292163     0.2524724    -2.4267900
H          -0.2990299     1.0747240    -2.8871574
N           0.9356856     0.4090428    -1.2392508
C           1.4276753    -0.7681642    -0.9937567
O           1.1070280    -1.7060130    -1.9224928
C           0.3333376    -1.0347916    -2.8374241
H          -0.0414706    -1.6112760    -3.6675249
O           5.0682391     2.6646282    -0.4302311
21
113_C9H8N2O2_16-0-8-9 (-105,) energy =    -607.7152327
C           2.2875210    -1.0052813     0.2403342
H           2.2857765    -2.0759044     0.4625346
H           1.8521745    -0.4814172     1.0984030
C           6.2512676     0.5298436    -0.4567139
H           7.2248431     0.9715391    -0.6366349
C           5.1571762     1.4566577    -0.2207069
N           3.9239069     0.8048644     0.0143656
H           3.1335082     1.4337058     0.1231044
C           3.7149001    -0.5473302     0.0206224
C           4.7639406    -1.3874530    -0.2283932
H           4.6127036    -2.4603427    -0.2334765
C           6.0523065    -0.8204783    -0.4630747
H           6.8904812    -1.4869390    -0.6526370
C           0.1722138     0.1077232    -2.4509579
H          -0.4609369     0.8387097    -2.9326846
N           0.7404163     0.3404892    -1.2029234
C           1.4174408    -0.7380047    -0.9479080
O           1.3521667    -1.6789842    -1.9276539
C           0.5447498    -1.1201861    -2.8869230
H           0.3505119    -1.7184952    -3.7623645
O           5.2148807     2.6814318    -0.2124098
21
113_C9H8N2O2_16-0-8-9 (-90,) energy =    -607.7139542
C           2.3720560    -1.5217820    -0.2058101
H           2.5472029    -2.5941684    -0.3151032
H           1.8029197    -1.3712241     0.7209306
C           6.0368560     0.7323214     0.0779332
H           6.9292448     1.3409069     0.1700672
C           4.8355436     1.2499109     0.7069723
N           3.7186296     0.3951232     0.5475187
H           2.8657575     0.7577027     0.9600939
C           3.7013106    -0.7991957    -0.1195078
C           4.8514207    -1.2478747    -0.7080753
H           4.8531005    -2.1873378    -1.2478256
C           6.0318656    -0.4560168    -0.5951841
H           6.9477323    -0.8144512    -1.0591131
C           0.5047194    -0.8923849    -3.2215937
H           0.1144822    -1.1788641    -4.1875337
N           1.2679519    -1.7668683    -2.4540569
C           1.5510095    -1.0938652    -1.3820840
O           1.0368620     0.1689147    -1.3662959
C           0.3677866     0.2818462    -2.5596585
H          -0.1218903     1.2228761    -2.7516187
O           4.7144447     2.3006996     1.3283041
21
113_C9H8N2O2_16-0-8-9 (-75,) energy =    -607.7132897
C           2.2861500    -1.4294877    -0.1373622
H           2.4324580    -2.5125018    -0.1300541
H           1.6960676    -1.1714707     0.7508696
C           6.0173583     0.7254847     0.0871253
H           6.9306994     1.3031863     0.1721774
C           4.8956364     1.1690710     0.8926782
N           3.7446380     0.3605446     0.7261316
H           2.9491494     0.6697013     1.2742811
C           3.6328791    -0.7322384    -0.0875340
C           4.7121359    -1.1159746    -0.8359451
H           4.6366240    -1.9737156    -1.4938553
C           5.9173558    -0.3625551    -0.7332707
H           6.7764381    -0.6684429    -1.3256529
C           0.5345382    -1.0805013    -3.2641431
H           0.1705880    -1.4589158    -4.2084597
N           1.2501743    -1.8842978    -2.3819959
C           1.5115427    -1.1075691    -1.3760511
O           1.0282177     0.1592416    -1.5115186
C           0.4027982     0.1590904    -2.7331010
H          -0.0590620     1.0838842    -3.0391718
O           4.8598000     2.1256275     1.6600592
21
113_C9H8N2O2_16-0-8-9 (-60,) energy =    -607.7130340
C           2.2171772    -1.2574438    -0.0899634
H           2.3137553    -2.3379368     0.0510289
H           1.6198185    -0.8689973     0.7431825
C           6.0779810     0.6659211     0.0920816
H           7.0312754     1.1746383     0.1791725
C           5.0567871     1.0406110     1.0507423
N           3.8443634     0.3300249     0.8691544
H           3.1203678     0.5908274     1.5299167
C           3.5942825    -0.6149580    -0.0857521
C           4.5834492    -0.9400119    -0.9737931
H           4.3969332    -1.6832739    -1.7399948
C           5.8401837    -0.2774845    -0.8677812
H           6.6272151    -0.5353987    -1.5725233
C           0.5959740    -1.1802826    -3.3029925
H           0.2895509    -1.6326477    -4.2351238
N           1.2951859    -1.8978945    -2.3376478
C           1.4824327    -1.0478447    -1.3746146
O           0.9636360     0.1881539    -1.6164480
C           0.3971742     0.0854028    -2.8617056
H          -0.0833545     0.9697542    -3.2480781
O           5.1441558     1.8691647     1.9515475
21
113_C9H8N2O2_16-0-8-9 (-45,) energy =    -607.7131365
C           2.1592581    -1.0918066    -0.0484593
H           2.2077292    -2.1490818     0.2331069
H           1.5541241    -0.5779904     0.7077502
C           6.1206977     0.6148852     0.1281095
H           7.1044845     1.0600131     0.2239076
C           5.1800099     0.8918078     1.1962308
N           3.9201797     0.2762408     0.9933796
H           3.2521548     0.4712169     1.7313698
C           3.5601746    -0.5027127    -0.0709592
C           4.4762039    -0.7417668    -1.0585529
H           4.2072804    -1.3614439    -1.9054576
C           5.7734539    -0.1640232    -0.9395545
H           6.5020312    -0.3529213    -1.7244911
C           0.6434084    -1.3259679    -3.3049666
H           0.3786386    -1.8613459    -4.2053264
N           1.3288332    -1.9425187    -2.2630273
C           1.4640827    -1.0118658    -1.3678349
O           0.9215375     0.1850336    -1.7266625
C           0.3978050    -0.0348015    -2.9748636
H          -0.0940847     0.8007672    -3.4462106
O           5.3662259     1.5734945     2.1992915
21
113_C9H8N2O2_16-0-8-9 (-30,) energy =    -607.7131751
C           2.1143309    -0.9384727    -0.0352717
H           2.1115967    -1.9592104     0.3643051
H           1.5096964    -0.3214602     0.6411687
C           6.1505585     0.5768006     0.1588843
H           7.1560638     0.9673546     0.2664289
C           5.2726070     0.7290506     1.3034492
N           3.9785791     0.1995575     1.0786258
H           3.3548117     0.3078664     1.8712842
C           3.5369059    -0.4078330    -0.0652389
C           4.3955245    -0.5346719    -1.1216673
H           4.0680898    -1.0237488    -2.0306404
C           5.7213353    -0.0268712    -0.9886208
H           6.4038658    -0.1271145    -1.8292828
C           0.6457445    -1.4784475    -3.2769038
H           0.3750793    -2.1003511    -4.1179533
N           1.2994375    -1.9980498    -2.1643214
C           1.4533706    -0.9804070    -1.3728569
O           0.9525664     0.1863575    -1.8678845
C           0.4371035    -0.1520420    -3.0921276
H          -0.0218634     0.6417677    -3.6592023
O           5.5364007     1.2484267     2.3832348
21
113_C9H8N2O2_16-0-8-9 (-15,) energy =    -607.7130257
C           2.0749981    -0.7897984    -0.0301545
H           2.0145502    -1.7617856     0.4739211
H           1.4826371    -0.0795047     0.5618098
C           6.1740680     0.5397511     0.1847654
H           7.1965104     0.8802829     0.3021013
C           5.3457133     0.5594084     1.3758877
N           4.0263586     0.1062884     1.1359173
H           3.4382958     0.1200684     1.9625676
C           3.5194603    -0.3259581    -0.0604903
C           4.3321810    -0.3308986    -1.1590230
H           3.9571631    -0.6798166    -2.1127088
C           5.6802921     0.1131886    -1.0144427
H           6.3260186     0.1087579    -1.8894225
C           0.6389088    -1.6162172    -3.2248065
H           0.3513680    -2.3150029    -3.9970936
N           1.2528483    -2.0376865    -2.0504123
C           1.4428084    -0.9470827    -1.3723998
O           1.0030029     0.1791688    -2.0025641
C           0.4892164    -0.2692943    -3.1912748
H           0.0756030     0.4763500    -3.8510833
O           5.6700386     0.9162614     2.5039148
21
113_C9H8N2O2_16-0-8-9 (0,) energy =    -607.7128444
C           2.0378512    -0.6592918    -0.0412000
H           1.9230747    -1.5809362     0.5413289
H           1.4607682     0.1217440     0.4738635
C           6.1860570     0.4960301     0.2250122
H           7.2216812     0.7874308     0.3580300
C           5.3916497     0.3605538     1.4317948
N           4.0545065    -0.0217593     1.1699872
H           3.4921610    -0.1211055     2.0086572
C           3.4997973    -0.2561378    -0.0605448
C           4.2807091    -0.1160664    -1.1729142
H           3.8683703    -0.2920395    -2.1577209
C           5.6456188     0.2660462    -1.0070760
H           6.2658338     0.3751859    -1.8936190
C           0.5667971    -1.7402488    -3.1412215
H           0.2025980    -2.5008874    -3.8166348
N           1.1075931    -2.0626347    -1.9016761
C           1.4276969    -0.9193760    -1.3774182
O           1.1410903     0.1521966    -2.1713539
C           0.5891183    -0.3944864    -3.3013972
H           0.2841871     0.2950056    -4.0721275
O           5.7579371     0.5388033     2.5888707
21
113_C9H8N2O2_16-0-8-9 (15,) energy =    -607.7126922
C           2.0022259    -0.5256961    -0.0590506
H           1.8315268    -1.3759820     0.6105615
H           1.4472926     0.3282518     0.3550094
C           6.1939788     0.4576909     0.2263986
H           7.2407632     0.7026732     0.3654119
C           5.4286562     0.1855256     1.4285848
N           4.0749662    -0.1277487     1.1596608
H           3.5346232    -0.3310709     1.9939806
C           3.4819332    -0.1888629    -0.0735915
C           4.2363119     0.0776112    -1.1816370
H           3.7916947     0.0475108    -2.1673230
C           5.6150543     0.4020328    -1.0085062
H           6.2143438     0.6106690    -1.8916382
C           0.5687353    -1.8804523    -3.0677377
H           0.1963059    -2.6974534    -3.6687363
N           1.0710709    -2.0859569    -1.7879093
C           1.4151471    -0.9038501    -1.3777837
O           1.1789425     0.0862458    -2.2863535
C           0.6358738    -0.5605417    -3.3677159
H           0.3693044     0.0525580    -4.2135376
O           5.8302105     0.2011805     2.5875472
21
113_C9H8N2O2_16-0-8-9 (30,) energy =    -607.7125326
C           1.9675675    -0.3634275    -0.0710867
H           1.7327664    -1.1299410     0.6747995
H           1.4449828     0.5545416     0.2314197
C           6.2053063     0.4031909     0.2315738
H           7.2637499     0.5909107     0.3715021
C           5.4584890     0.0015598     1.4082345
N           4.0885497    -0.2327395     1.1368502
H           3.5609228    -0.5247326     1.9526189
C           3.4644107    -0.1051934    -0.0748018
C           4.2023094     0.2832367    -1.1586489
H           3.7304119     0.4033664    -2.1247816
C           5.5954529     0.5334203    -0.9831332
H           6.1817397     0.8370764    -1.8472504
C           0.5876826    -1.9694744    -2.9809136
H           0.2167837    -2.8329451    -3.5140581
N           1.0499962    -2.0621722    -1.6728489
C           1.4045249    -0.8528883    -1.3646681
O           1.2114586     0.0522051    -2.3676532
C           0.6876037    -0.6851077    -3.4004630
H           0.4563094    -0.1495237    -4.3070629
O           5.8853343    -0.1471784     2.5486301
21
113_C9H8N2O2_16-0-8-9 (45,) energy =    -607.7123577
C           1.9315153    -0.1961339    -0.0918618
H           1.6387016    -0.8647070     0.7230337
H           1.4403402     0.7695622     0.0857276
C           6.2048150     0.3449483     0.2216297
H           7.2730279     0.4679979     0.3590146
C           5.4678278    -0.2013825     1.3445054
N           4.0824617    -0.3348628     1.0802829
H           3.5609465    -0.7277218     1.8565140
C           3.4393588    -0.0017569    -0.0800501
C           4.1700506     0.5146322    -1.1153458
H           3.6816945     0.7896705    -2.0413041
C           5.5752558     0.6810309    -0.9430887
H           6.1556812     1.0886911    -1.7674740
C           0.6204566    -2.0653825    -2.8744770
H           0.2505372    -2.9718960    -3.3314459
N           1.0248392    -2.0304937    -1.5443702
C           1.3963215    -0.8032826    -1.3482125
O           1.2678867    -0.0036887    -2.4462172
C           0.7706022    -0.8344389    -3.4199373
H           0.5906220    -0.3918194    -4.3863120
O           5.9118108    -0.5398685     2.4369044
21
113_C9H8N2O2_16-0-8-9 (60,) energy =    -607.7123763
C           1.8853871    -0.0185626    -0.1216061
H           1.5384656    -0.5693452     0.7568440
H           1.4252519     0.9763794    -0.0884186
C           6.1809868     0.3018613     0.1947327
H           7.2560720     0.3561273     0.3227348
C           5.4407241    -0.3856877     1.2348389
N           4.0451922    -0.4135184     0.9907299
H           3.5202020    -0.9083774     1.7037093
C           3.3984892     0.1279195    -0.0849304
C           4.1329473     0.7691340    -1.0455984
H           3.6393749     1.2013810    -1.9071967
C           5.5468956     0.8460417    -0.8862206
H           6.1306438     1.3545158    -1.6500046
C           0.6628057    -2.1652610    -2.7413351
H           0.3012988    -3.1119463    -3.1161861
N           1.0048025    -1.9917617    -1.4043572
C           1.3841656    -0.7538723    -1.3237778
O           1.3202072    -0.0761673    -2.5050134
C           0.8576782    -1.0016592    -3.4074398
H           0.7292551    -0.6635592    -4.4230071
O           5.8894380    -0.9136483     2.2471385
21
113_C9H8N2O2_16-0-8-9 (75,) energy =    -607.7128805
C           1.8648172     0.1340304    -0.1675525
H           1.4651395    -0.2996073     0.7533773
H           1.4454205     1.1412938    -0.2676022
C           6.1674925     0.2214589     0.1541875
H           7.2450488     0.2023977     0.2711139
C           5.4048190    -0.6091059     1.0670800
N           4.0075017    -0.5259294     0.8502707
H           3.4640495    -1.1196192     1.4678525
C           3.3783002     0.2342047    -0.0960597
C           4.1334438     0.9982721    -0.9435706
H           3.6524897     1.5987464    -1.7063218
C           5.5514002     0.9799236    -0.8003725
H           6.1519417     1.5894521    -1.4715422
C           0.6804282    -2.2468650    -2.5967941
H           0.3037183    -3.2175519    -2.8853350
N           0.9679685    -1.9394474    -1.2709113
C           1.3859469    -0.7116462    -1.3059697
O           1.4007777    -0.1651976    -2.5537462
C           0.9453476    -1.1681771    -3.3727929
H           0.8747438    -0.9386582    -4.4237525
O           5.8399592    -1.3330097     1.9565233
21
113_C9H8N2O2_16-0-8-9 (90,) energy =    -607.7139213
C           3.1063829    -1.4984116    -1.7836441
H           3.4357608    -1.4979469    -2.8272557
H           3.0753969    -2.5388524    -1.4442998
C           5.8321670     0.9019097     0.5376397
H           6.5156737     1.5460449     1.0790458
C           5.5927167     1.2415666    -0.8536699
N           4.6956865     0.3514799    -1.4912036
H           4.4905318     0.5950362    -2.4549036
C           4.0830462    -0.7286126    -0.9169592
C           4.3224793    -1.0070043     0.4002731
H           3.8382750    -1.8530724     0.8731685
C           5.2197207    -0.1679174     1.1248273
H           5.4158221    -0.3921440     2.1707196
C          -0.0951728     0.1224961    -2.0878617
H          -0.8087388     0.7483173    -2.6041297
N           1.1571749    -0.1554391    -2.6259764
C           1.7243234    -0.9238607    -1.7469997
O           0.9520013    -1.1859916    -0.6571048
C          -0.2158306    -0.5046077    -0.8926844
H          -0.9818691    -0.5846594    -0.1383774
O           6.0735218     2.1781930    -1.4825120
21
113_C9H8N2O2_16-0-8-9 (105,) energy =    -607.7152327
C           3.0526307    -1.6090359    -1.6463628
H           3.4106846    -1.7368616    -2.6738356
H           2.9517719    -2.6014302    -1.1984888
C           5.8334851     0.8918908     0.4904622
H           6.5255747     1.5635354     0.9856610
C           5.4012504     1.2797454    -0.8416268
N           4.5082015     0.3498398    -1.4236813
H           4.1467036     0.6298730    -2.3308176
C           4.0527349    -0.8025382    -0.8433958
C           4.4634911    -1.1226942     0.4203607
H           4.1062315    -2.0284360     0.8957439
C           5.3775808    -0.2499933     1.0831226
H           5.7129486    -0.5069109     2.0852012
C           0.0245737     0.2703274    -2.1515569
H          -0.5816351     0.9841727    -2.6902753
N           1.2988764    -0.0816172    -2.5838901
C           1.7111808    -0.9479568    -1.7086731
O           0.8153495    -1.2059326    -0.7184511
C          -0.2659734    -0.4156839    -1.0194875
H          -1.1101486    -0.4784615    -0.3520093
O           5.7271053     2.2869760    -1.4603154
21
113_C9H8N2O2_16-0-8-9 (120,) energy =    -607.7165679
C           2.9841559    -1.6642876    -1.4892305
H           3.3634166    -1.9269173    -2.4848554
H           2.8182043    -2.5930574    -0.9387291
C           5.8953297     0.8761044     0.4120470
H           6.6208427     1.5547718     0.8461543
C           5.2744214     1.3058993    -0.8301992
N           4.3496978     0.3655727    -1.3398338
H           3.8373890     0.6743448    -2.1631470
C           4.0170132    -0.8276741    -0.7605513
C           4.6006272    -1.1880957     0.4217606
H           4.3445963    -2.1302451     0.8917369
C           5.5632948    -0.3086691     1.0023445
H           6.0362608    -0.5951361     1.9388172
C           0.1146151     0.3880640    -2.2046486
H          -0.3806914     1.1881251    -2.7353587
N           1.4330026     0.0369026    -2.4737348
C           1.6820839    -0.9457816    -1.6610701
O           0.6342161    -1.2849612    -0.8661759
C          -0.3682929    -0.4192589    -1.2291794
H          -1.3095019    -0.5284112    -0.7152780
O           5.4755803     2.3573269    -1.4283898
21
113_C9H8N2O2_16-0-8-9 (135,) energy =    -607.7173813
C           2.8878403    -1.6595502    -1.3086266
H           3.2717520    -2.0598112    -2.2577089
H           2.6671141    -2.5118276    -0.6624430
C           5.9832855     0.8549040     0.3193008
H           6.7586972     1.5196214     0.6831048
C           5.1947968     1.3367315    -0.8023710
N           4.2126553     0.4127046    -1.2271846
H           3.5929287     0.7473277    -1.9645013
C           3.9662031    -0.8076568    -0.6654379
C           4.7145129    -1.2232479     0.4015366
H           4.5315743    -2.1908130     0.8539189
C           5.7434566    -0.3628539     0.8873593
H           6.3439974    -0.6906298     1.7328040
C           0.1176535     0.4382060    -2.2654568
H          -0.3090455     1.2764178    -2.7966674
N           1.4704898     0.1288934    -2.3511030
C           1.6193044    -0.9163345    -1.5931906
O           0.4691774    -1.3380160    -1.0076012
C          -0.4885841    -0.4587803    -1.4508917
H          -1.4943808    -0.6237802    -1.1003423
O           5.3072762     2.4182360    -1.3702737
21
113_C9H8N2O2_16-0-8-9 (150,) energy =    -607.7172014
C           2.8130214    -1.6164984    -1.1014259
H           3.1894200    -2.1617603    -1.9805446
H           2.5358258    -2.3721916    -0.3625056
C           6.0917325     0.8324304     0.2505257
H           6.9149464     1.4736618     0.5447980
C           5.1695864     1.3750234    -0.7312317
N           4.1299362     0.4791089    -1.0728617
H           3.4393318     0.8414555    -1.7320152
C           3.9443769    -0.7665830    -0.5491387
C           4.8282232    -1.2457917     0.3807837
H           4.6969703    -2.2364468     0.8004458
C           5.9184120    -0.4166215     0.7744903
H           6.6227380    -0.7936761     1.5125505
C           0.1313153     0.4614459    -2.3342884
H          -0.2490258     1.3184495    -2.8704748
N           1.4953010     0.2206472    -2.2140483
C           1.5817754    -0.8698131    -1.5121326
O           0.3765249    -1.3855803    -1.1566109
C          -0.5458586    -0.5209815    -1.6935839
H          -1.5839063    -0.7553893    -1.5227917
O           5.2194663     2.4834030    -1.2556330
21
113_C9H8N2O2_16-0-8-9 (165,) energy =    -607.7162399
C           2.7330140    -1.5676488    -0.8903103
H           3.0738782    -2.2794401    -1.6580170
H           2.3965658    -2.1798442    -0.0479287
C           6.1770972     0.8015260     0.1779427
H           7.0373032     1.4195112     0.4093685
C           5.1539044     1.4029402    -0.6563782
N           4.0674800     0.5354760    -0.9205336
H           3.3270495     0.9261211    -1.5065445
C           3.9301504    -0.7372188    -0.4545447
C           4.9172790    -1.2768702     0.3291672
H           4.8248466    -2.2901779     0.7034060
C           6.0535922    -0.4779451     0.6407539
H           6.8369145    -0.9031200     1.2642047
C           0.1570117     0.4650252    -2.4059174
H          -0.1903934     1.3336784    -2.9454836
N           1.4989548     0.2929627    -2.0844627
C           1.5496621    -0.8344728    -1.4404913
O           0.3389533    -1.4389981    -1.3101523
C          -0.5439848    -0.5935271    -1.9364409
H          -1.5786525    -0.8952707    -1.9430740
O           5.1566156     2.5368677    -1.1267300
21
113_C9H8N2O2_16-0-8-9 (180,) energy =    -607.7155187
C           2.6736782    -1.5264078    -0.6260401
H           2.9356021    -2.4264773    -1.1982618
H           2.2914277    -1.8986861     0.3338660
C           6.2645535     0.7586813     0.0974236
H           7.1514945     1.3595847     0.2636831
C           5.1629528     1.4062374    -0.5880266
N           4.0422329     0.5606603    -0.7694323
H           3.2458249     0.9845366    -1.2499911
C           3.9460968    -0.7352894    -0.3634554
C           5.0065855    -1.3176993     0.2832023
H           4.9460027    -2.3489961     0.6127226
C           6.1776074    -0.5417242     0.5084084
H           7.0194233    -1.0019839     1.0208531
C           0.1696914     0.4332808    -2.3547802
H          -0.1965079     1.3361639    -2.8204711
N           1.4420516     0.3642404    -1.7965457
C           1.5449840    -0.8454138    -1.3353468
O           0.4315942    -1.5989006    -1.5429696
C          -0.4410051    -0.7637500    -2.1975883
H          -1.4014703    -1.1777114    -2.4579710
O           5.1255629     2.5621498    -1.0004414
