21
113_C9H8N2O2_8-0-16-17 (-165,) energy =    -607.7162642
C           2.7151149    -1.6473759    -0.8777561
H           3.0609089    -2.3114672    -1.6858891
H           2.3748279    -2.3115818    -0.0769980
C           6.1559131     0.6359823     0.3590312
H           7.0203321     1.2316811     0.6299431
C           5.2328703     1.2305376    -0.5903399
N           4.1377244     0.3923612    -0.9050063
H           3.4235497     0.8134690    -1.5010141
C           3.9012188    -0.8433489    -0.3788596
C           4.7831006    -1.3676577     0.5298500
H           4.6129620    -2.3520079     0.9507981
C           5.9284291    -0.6014627     0.8901951
H           6.6314876    -1.0173420     1.6083583
C           0.1591535     0.4829738    -2.2906472
H          -0.1968564     1.4146638    -2.7048786
N           1.4650982     0.3386325    -1.8341386
C           1.5375438    -0.8837853    -1.4013725
O           0.3789034    -1.5803254    -1.5470864
C          -0.4971926    -0.6876038    -2.1155870
H          -1.4953445    -1.0464457    -2.3069394
O           5.3213999     2.3398300    -1.1083480
21
113_C9H8N2O2_8-0-16-17 (-150,) energy =    -607.7169681
C           2.7493329    -1.6264502    -1.0391986
H           3.1234046    -2.1947659    -1.9057665
H           2.4299925    -2.3701148    -0.3042061
C           6.0876071     0.6880862     0.3982698
H           6.9283212     1.2943926     0.7162215
C           5.2247159     1.2623748    -0.6188033
N           4.1586719     0.4113094    -0.9915849
H           3.4847855     0.8152345    -1.6435504
C           3.8980622    -0.8197286    -0.4640072
C           4.7217184    -1.3250495     0.5067890
H           4.5311882    -2.3046463     0.9296913
C           5.8356838    -0.5437833     0.9306119
H           6.4933857    -0.9436936     1.6990435
C           0.1562882     0.5312190    -2.3295384
H          -0.1934292     1.4440628    -2.7888355
N           1.4996094     0.3309585    -2.0314785
C           1.5505204    -0.8475185    -1.4869958
O           0.3418560    -1.4635268    -1.4097349
C          -0.5440291    -0.5645162    -1.9525375
H          -1.5793936    -0.8628610    -1.9783307
O           5.3408858     2.3645359    -1.1460196
21
113_C9H8N2O2_8-0-16-17 (-135,) energy =    -607.7173611
C           2.7970266    -1.6385263    -1.1719639
H           3.1987327    -2.1295659    -2.0715309
H           2.4954487    -2.4352703    -0.4880611
C           6.0130658     0.7309901     0.4416812
H           6.8229777     1.3550204     0.8023944
C           5.2031759     1.2812405    -0.6314660
N           4.1765540     0.4073198    -1.0575390
H           3.5435001     0.7889712    -1.7613080
C           3.9058323    -0.8232033    -0.5326303
C           4.6778850    -1.3055796     0.4897272
H           4.4776175    -2.2834368     0.9118843
C           5.7513984    -0.5000153     0.9708455
H           6.3692720    -0.8808144     1.7808894
C           0.1725948     0.5283024    -2.3710221
H          -0.1828364     1.4125395    -2.8794225
N           1.5296663     0.2612201    -2.2298784
C           1.5826032    -0.8578255    -1.5712680
O           0.3623847    -1.3703384    -1.2668423
C          -0.5341292    -0.4690898    -1.7876684
H          -1.5792642    -0.6936205    -1.6500560
O           5.3326889     2.3799692    -1.1621773
21
113_C9H8N2O2_8-0-16-17 (-120,) energy =    -607.7174207
C           2.8583312    -1.6827049    -1.2795993
H           3.2843617    -2.0994996    -2.2033313
H           2.5817406    -2.5248549    -0.6416508
C           5.9385967     0.7552197     0.4892887
H           6.7134756     1.4000205     0.8883752
C           5.1787818     1.2778998    -0.6336745
N           4.1955371     0.3780248    -1.1053867
H           3.6033714     0.7347351    -1.8553092
C           3.9236959    -0.8544425    -0.5842214
C           4.6480319    -1.3110496     0.4828184
H           4.4450558    -2.2891390     0.9029309
C           5.6753286    -0.4767526     1.0149639
H           6.2556649    -0.8364647     1.8615506
C           0.1934859     0.4718944    -2.3975725
H          -0.1839505     1.3173138    -2.9540058
N           1.5417236     0.1322357    -2.4077009
C           1.6255039    -0.9131832    -1.6398498
O           0.4355562    -1.3057529    -1.1166716
C          -0.4766110    -0.4078861    -1.6149876
H          -1.5036867    -0.5492919    -1.3202738
O           5.3155863     2.3732795    -1.1688177
21
113_C9H8N2O2_8-0-16-17 (-105,) energy =    -607.7171906
C           2.9072490    -1.7172026    -1.3591296
H           3.3439651    -2.0633811    -2.3049915
H           2.6616918    -2.5991737    -0.7635484
C           5.8669574     0.7728629     0.5373215
H           6.6096594     1.4347695     0.9682237
C           5.1507331     1.2762133    -0.6228285
N           4.2068233     0.3549996    -1.1322741
H           3.6538676     0.6944006    -1.9179018
C           3.9358761    -0.8817488    -0.6186193
C           4.6195706    -1.3196509     0.4815358
H           4.4163260    -2.2996141     0.8969766
C           5.6046679    -0.4621382     1.0560833
H           6.1528592    -0.8066879     1.9299201
C           0.1964528     0.4070594    -2.4093541
H          -0.2187043     1.1985143    -3.0161323
N           1.5141269    -0.0129677    -2.5555493
C           1.6555212    -0.9625515    -1.6790643
O           0.5356300    -1.2115804    -0.9518216
C          -0.3958278    -0.3267924    -1.4364170
H          -1.3780590    -0.3699373    -0.9945530
O           5.2922610     2.3704790    -1.1584615
21
113_C9H8N2O2_8-0-16-17 (-90,) energy =    -607.7167248
C           2.9257979    -1.7258118    -1.4278122
H           3.3581408    -2.0081277    -2.3953151
H           2.7140297    -2.6427443    -0.8722675
C           5.8014218     0.7793565     0.5750497
H           6.5213325     1.4478043     1.0335942
C           5.1203103     1.2788889    -0.6076779
N           4.2032147     0.3491136    -1.1501334
H           3.6868071     0.6831575    -1.9608779
C           3.9300387    -0.8945593    -0.6519847
C           4.5825278    -1.3285185     0.4677696
H           4.3764518    -2.3122163     0.8727102
C           5.5369936    -0.4612593     1.0789535
H           6.0599156    -0.8032848     1.9690689
C           0.1460069     0.3293175    -2.4262169
H          -0.3299086     1.0411044    -3.0849285
N           1.4186268    -0.1694090    -2.6851646
C           1.6546327    -0.9878494    -1.7032050
O           0.6434010    -1.0706696    -0.7982997
C          -0.3220616    -0.2227652    -1.2807064
H          -1.2330086    -0.1530851    -0.7085254
O           5.2689113     2.3750805    -1.1369565
21
113_C9H8N2O2_8-0-16-17 (-75,) energy =    -607.7160740
C           2.9610121    -1.7040402    -1.5033670
H           3.3870228    -1.9256515    -2.4885494
H           2.7795943    -2.6550204    -0.9938298
C           5.7709650     0.7669447     0.6307554
H           6.4744656     1.4284800     1.1234544
C           5.1391709     1.2799212    -0.5731384
N           4.2389874     0.3589795    -1.1580413
H           3.7697876     0.7020539    -1.9918704
C           3.9444863    -0.8913122    -0.6863835
C           4.5543807    -1.3376587     0.4519401
H           4.3305191    -2.3248455     0.8383955
C           5.4854247    -0.4788404     1.1096611
H           5.9733479    -0.8320674     2.0151033
C           0.0722363     0.2110075    -2.4765823
H          -0.4907040     0.8054869    -3.1814382
N           1.3027069    -0.3475169    -2.8089230
C           1.6692728    -0.9880195    -1.7391587
O           0.7867050    -0.8922436    -0.7077515
C          -0.2371035    -0.1233818    -1.2004984
H          -1.0620284     0.0668692    -0.5330098
O           5.3135464     2.3787020    -1.0887760
21
113_C9H8N2O2_8-0-16-17 (-60,) energy =    -607.7152474
C           2.9816105    -1.6555610    -1.5683028
H           3.3955883    -1.8272045    -2.5682317
H           2.8300578    -2.6353168    -1.1021760
C           5.7608643     0.7536729     0.6738959
H           6.4569986     1.4002580     1.1959866
C           5.1711106     1.2894561    -0.5410358
N           4.2783712     0.3866923    -1.1645823
H           3.8476427     0.7476176    -2.0105624
C           3.9542818    -0.8669121    -0.7196535
C           4.5275679    -1.3344623     0.4290246
H           4.2811507    -2.3237588     0.7957558
C           5.4479212    -0.4954403     1.1260984
H           5.9052999    -0.8669809     2.0400738
C          -0.0554474     0.0451271    -2.4964117
H          -0.7260278     0.4838536    -3.2210310
N           1.1400266    -0.5567954    -2.8770303
C           1.6660545    -0.9685713    -1.7628933
O           0.9235276    -0.6765777    -0.6592578
C          -0.1817500    -0.0291933    -1.1493905
H          -0.9136091     0.2912765    -0.4255141
O           5.3735656     2.3918864    -1.0383867
21
113_C9H8N2O2_8-0-16-17 (-45,) energy =    -607.7142083
C           3.0165142    -1.6009682    -1.6327750
H           3.4272272    -1.7274933    -2.6408870
H           2.8917291    -2.6056242    -1.2110124
C           5.7605379     0.7425088     0.7189092
H           6.4489332     1.3726692     1.2704850
C           5.2110036     1.3040883    -0.5029498
N           4.3278095     0.4209041    -1.1665519
H           3.9293722     0.8025126    -2.0186581
C           3.9749785    -0.8355350    -0.7511226
C           4.5118262    -1.3270514     0.4052556
H           4.2444404    -2.3188502     0.7498398
C           5.4212000    -0.5100461     1.1414883
H           5.8487584    -0.9017132     2.0614373
C          -0.1597380    -0.1290653    -2.4879297
H          -0.9293661     0.1470558    -3.1941825
N           1.0041713    -0.7758919    -2.8911170
C           1.6769275    -0.9479986    -1.7938739
O           1.0627494    -0.4515168    -0.6840990
C          -0.1184055     0.0685632    -1.1479470
H          -0.7658563     0.5232532    -0.4155815
O           5.4387757     2.4118559    -0.9772083
21
113_C9H8N2O2_8-0-16-17 (-30,) energy =    -607.7130422
C           3.0282350    -1.5654220    -1.6658989
H           3.4461064    -1.6646081    -2.6748517
H           2.9167619    -2.5848009    -1.2762631
C           5.7592190     0.7163566     0.7603342
H           6.4458934     1.3304437     1.3318322
C           5.2113591     1.3130883    -0.4453100
N           4.3304203     0.4494226    -1.1367111
H           3.9322814     0.8594043    -1.9752285
C           3.9766057    -0.8188579    -0.7599764
C           4.5133828    -1.3437506     0.3820005
H           4.2473588    -2.3461679     0.6954851
C           5.4203284    -0.5486404     1.1444763
H           5.8465347    -0.9675439     2.0529696
C          -0.2483347    -0.2835588    -2.4500811
H          -1.0966737    -0.1607402    -3.1079296
N           0.8784664    -1.0011009    -2.8369440
C           1.6716618    -0.9382513    -1.8111350
O           1.1719786    -0.2193928    -0.7679654
C          -0.0650077     0.1923985    -1.1945274
H          -0.6365874     0.7937606    -0.5062070
O           5.4389402     2.4344517    -0.8867902
21
113_C9H8N2O2_8-0-16-17 (-15,) energy =    -607.7120482
C           3.0505165    -1.5360309    -1.7026441
H           3.4741904    -1.5870526    -2.7138449
H           2.9616349    -2.5735005    -1.3597961
C           5.7594467     0.6880113     0.8010018
H           6.4418802     1.2868531     1.3933799
C           5.2218942     1.3145865    -0.3938566
N           4.3490093     0.4678281    -1.1154264
H           3.9520169     0.9033788    -1.9411186
C           3.9876718    -0.8076823    -0.7719076
C           4.5135856    -1.3602466     0.3624419
H           4.2452092    -2.3698749     0.6497477
C           5.4147968    -0.5851423     1.1515318
H           5.8323795    -1.0266003     2.0532923
C          -0.3130419    -0.4210078    -2.3694311
H          -1.2268068    -0.4289662    -2.9461707
N           0.7796350    -1.2055013    -2.7217862
C           1.6731670    -0.9423612    -1.8181594
O           1.2708329    -0.0309910    -0.8901962
C          -0.0108949     0.2934001    -1.2582415
H          -0.5190145     1.0195049    -0.6446162
O           5.4513736     2.4473710    -0.8043130
21
113_C9H8N2O2_8-0-16-17 (0,) energy =    -607.7115741
C           2.5320302    -1.6643655    -0.5186032
H           2.8573108    -2.6463540    -0.8769524
H           1.9940801    -1.8511036     0.4214505
C           5.8999226     0.8645668     0.3869842
H           6.7143517     1.5325568     0.6433686
C           4.5624216     1.3192942     0.7233561
N           3.5579209     0.3890305     0.3695271
H           2.6178527     0.7121288     0.5705653
C           3.7503120    -0.8159409    -0.2516188
C           5.0252118    -1.2049754    -0.5565369
H           5.2005442    -2.1584426    -1.0403317
C           6.1082703    -0.3379598    -0.2239395
H           7.1212966    -0.6500433    -0.4665108
C          -0.0870686    -0.7360219    -2.8171174
H          -1.0253227    -0.9187602    -3.3210648
N           0.4382644    -1.6415670    -1.9018303
C           1.5507550    -1.1001732    -1.5113962
O           1.8139131     0.1036916    -2.0899811
C           0.7496444     0.3237809    -2.9291251
H           0.7629812     1.2426993    -3.4923895
O           4.2519649     2.3782821     1.2588007
21
113_C9H8N2O2_8-0-16-17 (15,) energy =    -607.7120476
C           2.5476112    -1.6970586    -0.5463127
H           2.8966516    -2.6559382    -0.9469369
H           2.0110273    -1.9342558     0.3812991
C           5.8704464     0.8699335     0.4178066
H           6.6729114     1.5470720     0.6876390
C           4.5246060     1.2914607     0.7645829
N           3.5372271     0.3517637     0.3881086
H           2.5916330     0.6461662     0.6077916
C           3.7526095    -0.8374969    -0.2558441
C           5.0342936    -1.1963849    -0.5674368
H           5.2264177    -2.1356247    -1.0722166
C           6.1010226    -0.3160715    -0.2167928
H           7.1196842    -0.6040834    -0.4654213
C          -0.1423039    -0.6426386    -2.7031141
H          -1.1458294    -0.7318687    -3.0937726
N           0.3362958    -1.5004889    -1.7189595
C           1.5530872    -1.1029614    -1.5057812
O           1.9271010    -0.0341864    -2.2617870
C           0.8250613     0.2485774    -3.0292914
H           0.9112362     1.0818340    -3.7076922
O           4.1950159     2.3311461     1.3255807
21
113_C9H8N2O2_8-0-16-17 (30,) energy =    -607.7130414
C           2.5699412    -1.7165220    -0.5793348
H           2.9387315    -2.6507651    -1.0201385
H           2.0377865    -1.9967683     0.3376945
C           5.8374525     0.8959959     0.4464455
H           6.6238984     1.5854617     0.7317447
C           4.4814051     1.2842869     0.7930189
N           3.5153442     0.3321392     0.3927979
H           2.5625086     0.5973410     0.6197978
C           3.7602348    -0.8433801    -0.2658757
C           5.0502750    -1.1720856    -0.5750330
H           5.2647712    -2.0985688    -1.0941741
C           6.0964436    -0.2752506    -0.2044139
H           7.1223505    -0.5381519    -0.4511521
C          -0.1802202    -0.5264554    -2.5817605
H          -1.2250075    -0.5033873    -2.8563517
N           0.2826261    -1.3218068    -1.5390863
C           1.5607455    -1.0971877    -1.5026888
O           1.9924169    -0.1987442    -2.4306763
C           0.8601207     0.1561983    -3.1187538
H           0.9832008     0.8786181    -3.9093790
O           4.1281269     2.3063292     1.3715919
21
113_C9H8N2O2_8-0-16-17 (45,) energy =    -607.7142082
C           2.5925464    -1.7464506    -0.6193356
H           2.9774830    -2.6604800    -1.0875035
H           2.0585873    -2.0534242     0.2870882
C           5.8021217     0.9114736     0.4708023
H           6.5720138     1.6128678     0.7717353
C           4.4368002     1.2631871     0.8207808
N           3.4936147     0.2971918     0.3992641
H           2.5336469     0.5330269     0.6301409
C           3.7677067    -0.8599662    -0.2801679
C           5.0648702    -1.1539877    -0.5930864
H           5.3012735    -2.0646796    -1.1303561
C           6.0893146    -0.2408551    -0.2016681
H           7.1215981    -0.4754636    -0.4503596
C          -0.1746819    -0.3788709    -2.4791374
H          -1.2292057    -0.2126157    -2.6455826
N           0.2869257    -1.1095873    -1.3889008
C           1.5790590    -1.1037906    -1.5175119
O           2.0244593    -0.4107404    -2.6021987
C           0.8836225     0.0455680    -3.2113531
H           1.0162276     0.6326556    -4.1057996
O           4.0598141     2.2662234     1.4172219
21
113_C9H8N2O2_8-0-16-17 (60,) energy =    -607.7152474
C           2.6265684    -1.7828249    -0.6746350
H           3.0312304    -2.6631394    -1.1859810
H           2.1085386    -2.1337731     0.2249090
C           5.7495549     0.9361926     0.5123816
H           6.4950209     1.6527463     0.8380976
C           4.3668289     1.2607834     0.8184009
N           3.4569238     0.2771346     0.3652934
H           2.4836589     0.4917496     0.5606669
C           3.7772444    -0.8737718    -0.3035388
C           5.0888480    -1.1424277    -0.5760280
H           5.3598433    -2.0480701    -1.1054668
C           6.0816435    -0.2093186    -0.1511245
H           7.1259637    -0.4225683    -0.3667568
C          -0.1508473    -0.2222486    -2.3563076
H          -1.1824095     0.0936003    -2.4141748
N           0.3449913    -0.9007570    -1.2471771
C           1.5936627    -1.1193348    -1.5310274
O           1.9806312    -0.6266437    -2.7402041
C           0.8459313    -0.0573310    -3.2591874
H           0.9359578     0.3966944    -4.2328793
O           3.9518423     2.2560302     1.4023255
21
113_C9H8N2O2_8-0-16-17 (75,) energy =    -607.7160741
C           2.6778230    -1.8226769    -0.7524923
H           3.1010602    -2.6649159    -1.3078370
H           2.1808585    -2.2225153     0.1387632
C           5.7094776     0.9463670     0.5502592
H           6.4297831     1.6744432     0.9057317
C           4.3107689     1.2462452     0.8059062
N           3.4352382     0.2491466     0.3161883
H           2.4492797     0.4454903     0.4660514
C           3.8014240    -0.8923437    -0.3436271
C           5.1261764    -1.1378377    -0.5711095
H           5.4317610    -2.0367599    -1.0931849
C           6.0861086    -0.1896820    -0.1057909
H           7.1412803    -0.3832252    -0.2841529
C          -0.0702732    -0.0686383    -2.2789939
H          -1.0436176     0.3991750    -2.2493784
N           0.4740967    -0.6958096    -1.1624160
C           1.6257834    -1.1408319    -1.5680749
O           1.9044003    -0.8497318    -2.8679035
C           0.8012411    -0.1656334    -3.3119327
H           0.8131659     0.1527517    -4.3418489
O           3.8585335     2.2331498     1.3760904
21
113_C9H8N2O2_8-0-16-17 (90,) energy =    -607.7167247
C           2.7130680    -1.8263807    -0.8103396
H           3.1439822    -2.6283472    -1.4148199
H           2.2459507    -2.2806563     0.0717894
C           5.6925172     0.9436679     0.6060442
H           6.3993490     1.6700977     0.9908284
C           4.2851182     1.2393357     0.8160146
N           3.4279324     0.2439152     0.2923436
H           2.4345288     0.4388801     0.3958389
C           3.8195984    -0.8885905    -0.3660669
C           5.1515319    -1.1302773    -0.5544485
H           5.4760068    -2.0242310    -1.0737513
C           6.0933942    -0.1850335    -0.0483937
H           7.1543320    -0.3743968    -0.1942676
C          -0.0115372     0.0666630    -2.2038685
H          -0.9098096     0.6599000    -2.1132216
N           0.6129578    -0.4900789    -1.0923585
C           1.6364341    -1.1277381    -1.5778367
O           1.7545232    -1.0347013    -2.9290101
C           0.6837303    -0.2689868    -3.3174168
H           0.5794983    -0.0857710    -4.3745999
O           3.8134350     2.2234553     1.3753489
21
113_C9H8N2O2_8-0-16-17 (105,) energy =    -607.7171905
C           2.7622682    -1.8091333    -0.8817115
H           3.2063124    -2.5667871    -1.5310641
H           2.3200611    -2.3251671    -0.0194932
C           5.6920355     0.9340624     0.6830443
H           6.3867004     1.6507070     1.1064517
C           4.2789493     1.2337397     0.8432104
N           3.4371031     0.2507647     0.2737896
H           2.4398950     0.4528096     0.3279380
C           3.8490037    -0.8705976    -0.3892372
C           5.1864013    -1.1159978    -0.5331860
H           5.5261092    -2.0031849    -1.0544546
C           6.1127953    -0.1848929     0.0242286
H           7.1776717    -0.3767927    -0.0854731
C           0.0298592     0.1337761    -2.1944223
H          -0.8043837     0.8104430    -2.0799999
N           0.7555225    -0.3252254    -1.1004253
C           1.6616766    -1.1051114    -1.6108837
O           1.6040368    -1.2035315    -2.9644225
C           0.5463943    -0.4056324    -3.3249849
H           0.3169799    -0.3545840    -4.3769591
O           3.7917988     2.2132440     1.3978150
21
113_C9H8N2O2_8-0-16-17 (120,) energy =    -607.7174207
C           2.2973989    -1.3620404    -0.0081025
H           2.3561893    -2.4510266    -0.0660276
H           1.8439323    -1.1110849     0.9613811
C           6.1910660     0.4813732    -0.0439765
H           7.1459821     0.9947902    -0.0470933
C           5.0170598     1.3004608    -0.2936822
N           3.8102660     0.5643976    -0.2634442
H           2.9706643     1.0961633    -0.4927346
C           3.6988237    -0.7802573    -0.0537325
C           4.8254292    -1.5253329     0.1639124
H           4.7502677    -2.5926294     0.3359073
C           6.0887330    -0.8630679     0.1691246
H           6.9870180    -1.4506602     0.3443754
C           0.2210840     0.2995267    -2.4415327
H          -0.2230633     1.1826527    -2.8769971
N           1.0471857     0.3705440    -1.3254099
C           1.3926750    -0.8602856    -1.0904770
O           0.8587831    -1.7551107    -1.9611363
C           0.1052474    -0.9954806    -2.8223513
H          -0.4183220    -1.5251989    -3.6014619
O           4.9949642     2.5065218    -0.5170191
21
113_C9H8N2O2_8-0-16-17 (135,) energy =    -607.7173611
C           2.3550541    -1.3887016    -0.1267463
H           2.4358815    -2.4714025    -0.2479949
H           1.8852158    -1.2148275     0.8534055
C           6.2223514     0.5026159     0.0421450
H           7.1710373     1.0250532     0.0925008
C           5.0576543     1.3092376    -0.2790375
N           3.8573067     0.5629518    -0.3162585
H           3.0291951     1.0827966    -0.6089204
C           3.7456236    -0.7813574    -0.1081203
C           4.8652499    -1.5154324     0.1773973
H           4.7900885    -2.5826045     0.3506935
C           6.1196822    -0.8421608     0.2539915
H           7.0113517    -1.4212245     0.4832311
C           0.2585085     0.3411397    -2.5001612
H          -0.1255226     1.2372643    -2.9650912
N           1.2127931     0.3919079    -1.4903345
C           1.4399675    -0.8502419    -1.1833699
O           0.7022139    -1.7341422    -1.9035491
C          -0.0527837    -0.9540498    -2.7454124
H          -0.7188972    -1.4723051    -3.4157645
O           5.0376939     2.5143960    -0.5089069
21
113_C9H8N2O2_8-0-16-17 (150,) energy =    -607.7169682
C           2.3985806    -1.4465437    -0.2388605
H           2.5181776    -2.5168968    -0.4267645
H           1.9146487    -1.3620766     0.7473359
C           6.2094462     0.5303157     0.1287638
H           7.1439260     1.0704963     0.2310030
C           5.0530801     1.3107656    -0.2742881
N           3.8694771     0.5432347    -0.3733793
H           3.0544653     1.0428031    -0.7318864
C           3.7685205    -0.8002401    -0.1576682
C           4.8828225    -1.5104971     0.2031044
H           4.8163544    -2.5770722     0.3840882
C           6.1176324    -0.8141658     0.3487295
H           7.0034801    -1.3745784     0.6388843
C           0.2502098     0.3290963    -2.5359594
H          -0.0913903     1.2236631    -3.0355726
N           1.3218843     0.3497766    -1.6502695
C           1.4577268    -0.8815545    -1.2586493
O           0.5461258    -1.7291357    -1.8035170
C          -0.2211225    -0.9371831    -2.6231380
H          -1.0121663    -1.4283193    -3.1659797
O           5.0261021     2.5122562    -0.5230898
21
113_C9H8N2O2_8-0-16-17 (165,) energy =    -607.7162643
C           2.4810414    -1.4689537    -0.3696094
H           2.6418444    -2.5155574    -0.6469209
H           1.9932265    -1.4961629     0.6177955
C           6.2317593     0.5790156     0.1973831
H           7.1519259     1.1323481     0.3477008
C           5.0936352     1.3367086    -0.2898515
N           3.9272701     0.5526747    -0.4504808
H           3.1329659     1.0340008    -0.8747938
C           3.8283840    -0.7875728    -0.2187877
C           4.9275586    -1.4768491     0.2228603
H           4.8621988    -2.5409708     0.4189772
C           6.1419948    -0.7630998     0.4336241
H           7.0144286    -1.3076701     0.7876165
C           0.2905633     0.3806460    -2.5715178
H          -0.0096679     1.2690306    -3.1072535
N           1.4572996     0.3430337    -1.8151739
C           1.5066757    -0.8613339    -1.3315168
O           0.4489125    -1.6351427    -1.6936839
C          -0.3203034    -0.8244968    -2.4929473
H          -1.2179606    -1.2603313    -2.9003087
O           5.0667447     2.5336170    -0.5607204
21
113_C9H8N2O2_8-0-16-17 (180,) energy =    -607.7155185
C           2.5904045    -1.5625659    -0.6449137
H           2.8609819    -2.4525485    -1.2291718
H           2.1611891    -1.9520729     0.2876584
C           6.1947384     0.6301765     0.2728145
H           7.0875352     1.2072861     0.4855873
C           5.1494993     1.3045823    -0.4723619
N           4.0171593     0.4893349    -0.7114056
H           3.2552416     0.9359000    -1.2261823
C           3.8641163    -0.8020018    -0.3083091
C           4.8720604    -1.4104137     0.3959151
H           4.7662278    -2.4388463     0.7229490
C           6.0502001    -0.6657492     0.6816528
H           6.8502389    -1.1466253     1.2400218
C           0.2038463     0.4823521    -2.4394156
H          -0.1234455     1.4015890    -2.9020529
N           1.4475300     0.3768424    -1.8250661
C           1.5060598    -0.8437458    -1.3853869
O           0.3897989    -1.5709961    -1.6602150
C          -0.4356310    -0.7054976    -2.3361937
H          -1.3908306    -1.0948479    -2.6486850
O           5.1657554     2.4595721    -0.8886864
