18
420_C7H8N2O_8-7-13-15 (-165,) energy =    -456.3110555
N           2.6707167    -1.2934778     0.7408142
H           1.7925494    -0.9653065     1.1306083
H           2.9602594    -2.2330612     0.9705909
C           5.7326879     1.5627530     0.3318098
H           6.5290806     2.2945452     0.2399596
C           4.4189687     1.9695031     0.5156248
H           4.2059197     3.0313494     0.5997202
C           3.3613919     1.0507572     0.6517871
C           3.6552380    -0.3444358     0.6282992
C           4.9970098    -0.7416552     0.4291784
H           5.2235585    -1.8051017     0.3960687
C           6.0110489     0.1902180     0.2824536
H           7.0324887    -0.1532222     0.1389699
C           1.9614486     1.5144160     0.8498634
O           1.0600211     0.7937380     1.2927586
N           1.6924502     2.8326619     0.5491987
H           0.7084678     3.0677300     0.5672921
H           2.2469200     3.3097600    -0.1467695
18
420_C7H8N2O_8-7-13-15 (-150,) energy =    -456.3103623
N           2.6454813    -1.2632477     0.7088612
H           1.8110928    -0.9447779     1.1913692
H           2.9310039    -2.2131946     0.9009357
C           5.7485707     1.5669585     0.3838496
H           6.5526228     2.2927364     0.3125091
C           4.4413205     1.9812928     0.6085502
H           4.2300522     3.0401546     0.7330009
C           3.3828335     1.0654141     0.7276107
C           3.6530083    -0.3276103     0.6225784
C           4.9820462    -0.7311011     0.3741669
H           5.1948009    -1.7937135     0.2795310
C           6.0068819     0.1967815     0.2580642
H           7.0207396    -0.1515878     0.0774367
C           1.9816719     1.5350859     0.9278954
O           1.1203281     0.8747985     1.5158135
N           1.6776987     2.7695075     0.4063941
H           0.6997509     3.0256703     0.4332741
H           2.2347459     3.1561918    -0.3409725
18
420_C7H8N2O_8-7-13-15 (-135,) energy =    -456.3082051
N           2.6346038    -1.2372948     0.6655714
H           1.8412534    -0.9371451     1.2230527
H           2.9144850    -2.1965931     0.8191082
C           5.7754083     1.5644968     0.4159975
H           6.5855514     2.2848840     0.3594647
C           4.4749037     1.9828879     0.6821869
H           4.2690149     3.0386541     0.8417423
C           3.4165474     1.0697053     0.7877659
C           3.6646271    -0.3158603     0.6035907
C           4.9808114    -0.7226439     0.3098143
H           5.1798357    -1.7811750     0.1571950
C           6.0154225     0.2006190     0.2205509
H           7.0215844    -0.1493030     0.0036780
C           2.0128959     1.5392793     1.0037998
O           1.2094031     0.9555656     1.7340398
N           1.6459645     2.6442493     0.2853225
H           0.6793652     2.9343689     0.3402432
H           2.2109798     2.9855755    -0.4769169
18
420_C7H8N2O_8-7-13-15 (-120,) energy =    -456.3049943
N           2.5914582    -1.1771946     0.6320399
H           1.8281171    -0.8890791     1.2357579
H           2.8566666    -2.1448798     0.7615244
C           5.7897876     1.5686775     0.4617746
H           6.6115821     2.2769646     0.4218114
C           4.4961123     2.0021562     0.7464299
H           4.3056406     3.0575547     0.9286235
C           3.4286423     1.1016355     0.8308368
C           3.6487287    -0.2776161     0.5946012
C           4.9536113    -0.6996581     0.2821386
H           5.1338132    -1.7553384     0.0910345
C           6.0050543     0.2093457     0.2201788
H           7.0039094    -0.1502338    -0.0137320
C           2.0237644     1.5819761     1.0523551
O           1.2813883     1.1112051     1.9137883
N           1.5842899     2.5073533     0.1510085
H           0.6461452     2.8705600     0.2488612
H           2.1735207     2.8510240    -0.5913574
18
420_C7H8N2O_8-7-13-15 (-105,) energy =    -456.3013785
N           2.5289885    -1.0735848     0.5960725
H           1.8001539    -0.8041237     1.2488378
H           2.7687120    -2.0534390     0.6816636
C           5.8165830     1.5707905     0.5164942
H           6.6592738     2.2550897     0.4976034
C           4.5383348     2.0334487     0.8304213
H           4.3798372     3.0868364     1.0502900
C           3.4477931     1.1618436     0.8823396
C           3.6228033    -0.2094259     0.5866461
C           4.9097074    -0.6613666     0.2497789
H           5.0565179    -1.7135470     0.0153185
C           5.9891166     0.2177650     0.2173068
H           6.9748811    -0.1617586    -0.0392882
C           2.0528741     1.6696287     1.1398355
O           1.4020323     1.3654416     2.1361999
N           1.5174143     2.3912646     0.1132399
H           0.5900283     2.7782069     0.2262387
H           2.0620338     2.6443977    -0.6970567
18
420_C7H8N2O_8-7-13-15 (-90,) energy =    -456.2985437
N           2.4804961    -0.9247471     0.5087528
H           1.7639247    -0.6721155     1.1812368
H           2.6867750    -1.9153311     0.5599471
C           5.8864569     1.5682131     0.5888065
H           6.7596081     2.2132436     0.6091918
C           4.6262081     2.0778559     0.9027894
H           4.5120941     3.1268631     1.1646231
C           3.4949433     1.2595206     0.8862108
C           3.6155944    -0.1068226     0.5546430
C           4.8859205    -0.6089020     0.2289241
H           4.9892609    -1.6599624    -0.0326971
C           6.0046858     0.2204093     0.2442680
H           6.9771307    -0.1945646    -0.0079514
C           2.1281907     1.8253988     1.1965067
O           1.6287091     1.8014512     2.3155074
N           1.4659037     2.3122486     0.1074317
H           0.5258124     2.6652663     0.2253186
H           1.8659936     2.2727002    -0.8174926
18
420_C7H8N2O_8-7-13-15 (-75,) energy =    -456.2985165
N           2.4773546    -0.8615132     0.3569144
H           1.7261336    -0.6264808     0.9963048
H           2.6692253    -1.8561943     0.3918531
C           5.9342477     1.5458554     0.6627066
H           6.8216338     2.1670134     0.7372661
C           4.6774870     2.0780346     0.9443371
H           4.5774221     3.1153213     1.2519427
C           3.5221884     1.2991113     0.8343071
C           3.6269110    -0.0654301     0.4937407
C           4.8972919    -0.5965834     0.2181267
H           4.9853952    -1.6467918    -0.0525557
C           6.0347358     0.2022393     0.2951522
H           7.0064744    -0.2333435     0.0775557
C           2.1911574     1.9102163     1.2050443
O           1.9049738     2.2412495     2.3477798
N           1.3520652     2.1270761     0.1444880
H           0.4111395     2.4425057     0.3410454
H           1.5397466     1.7093997    -0.7557407
18
420_C7H8N2O_8-7-13-15 (-60,) energy =    -456.3009479
N           2.4684813    -0.8087501     0.2564133
H           1.7055225    -0.5882032     0.8868474
H           2.6517784    -1.8059338     0.2618769
C           5.9586526     1.5290508     0.7111784
H           6.8557505     2.1302301     0.8234728
C           4.7071580     2.0790103     0.9742887
H           4.6129548     3.1065333     1.3128220
C           3.5363942     1.3308696     0.8085095
C           3.6254725    -0.0304228     0.4467592
C           4.8923348    -0.5825567     0.1964258
H           4.9683707    -1.6297167    -0.0895209
C           6.0425579     0.1910232     0.3179161
H           7.0107995    -0.2601982     0.1173065
C           2.2291560     1.9859029     1.1761439
O           2.0618487     2.5786537     2.2337247
N           1.2741767     1.9617407     0.1919537
H           0.3563594     2.3234741     0.4142891
H           1.3757666     1.3640480    -0.6167693
18
420_C7H8N2O_8-7-13-15 (-45,) energy =    -456.3039236
N           2.4897263    -0.8307986     0.1916007
H           1.6489359    -0.5533438     0.6845229
H           2.6686462    -1.8242942     0.2739280
C           5.9262650     1.5609350     0.7531594
H           6.8138132     2.1711351     0.8893148
C           4.6627804     2.0958091     0.9747440
H           4.5447855     3.1210805     1.3114802
C           3.4996805     1.3379763     0.7781148
C           3.6118512    -0.0264004     0.4186369
C           4.8967613    -0.5635141     0.2167169
H           4.9900333    -1.6102381    -0.0651189
C           6.0340461     0.2195730     0.3725662
H           7.0121491    -0.2245475     0.2060949
C           2.1984687     2.0019303     1.1266511
O           2.0833145     2.7739909     2.0689010
N           1.1360558     1.7228540     0.2905147
H           0.3180559     2.3068982     0.4081048
H           1.3028333     1.3336985    -0.6282471
18
420_C7H8N2O_8-7-13-15 (-30,) energy =    -456.3059255
N           2.4814421    -0.8012547     0.1504676
H           1.6709645    -0.5816236     0.7192321
H           2.6792911    -1.7951879     0.1509135
C           5.9394794     1.5408578     0.7969899
H           6.8324860     2.1368004     0.9582882
C           4.6812112     2.0871742     1.0149162
H           4.5677732     3.1084335     1.3638804
C           3.5074760     1.3506124     0.7939952
C           3.6087018    -0.0055022     0.3967404
C           4.8887277    -0.5515940     0.1897518
H           4.9713656    -1.5918739    -0.1184385
C           6.0352510     0.2104826     0.3771545
H           7.0089196    -0.2415468     0.2060829
C           2.2200954     2.0665249     1.0790819
O           2.1489969     2.9924193     1.8772524
N           1.1043254     1.6408967     0.3800109
H           0.3111878     2.2676080     0.4401906
H           1.2272332     1.1477989    -0.4963051
18
420_C7H8N2O_8-7-13-15 (-15,) energy =    -456.3063647
N           2.4586994    -0.7609613     0.1220194
H           1.6949836    -0.6203732     0.7758023
H           2.6769029    -1.7469455     0.0288022
C           5.9332119     1.5374385     0.8513148
H           6.8303722     2.1195247     1.0385943
C           4.6779239     2.0933925     1.0601143
H           4.5674275     3.1131583     1.4134991
C           3.4972711     1.3740380     0.8159512
C           3.5927367     0.0278191     0.3831061
C           4.8686720    -0.5243835     0.1729737
H           4.9446309    -1.5575512    -0.1602875
C           6.0214520     0.2194388     0.3939817
H           6.9922462    -0.2378060     0.2208047
C           2.2216924     2.1390131     1.0219354
O           2.1882786     3.1848638     1.6594003
N           1.0654177     1.6057461     0.4763953
H           0.2887715     2.2567330     0.4781633
H           1.1465817     1.0149236    -0.3440826
18
420_C7H8N2O_8-7-13-15 (0,) energy =    -456.3051720
N           2.4531120    -0.7448088     0.0845671
H           1.7555889    -0.7072530     0.8227037
H           2.6893873    -1.7109854    -0.1173866
C           5.9390005     1.5134563     0.8966145
H           6.8373566     2.0842409     1.1114250
C           4.6852582     2.0785196     1.0907175
H           4.5772476     3.0987442     1.4429515
C           3.5006519     1.3739107     0.8218761
C           3.5958986     0.0379738     0.3583518
C           4.8686512    -0.5190564     0.1501101
H           4.9404925    -1.5453249    -0.2049328
C           6.0255162     0.2080048     0.4061064
H           6.9950448    -0.2527931     0.2355323
C           2.2367150     2.1805279     0.9457718
O           2.2427404     3.3154119     1.4088782
N           1.0468833     1.5749153     0.5762358
H           0.2791781     2.2355835     0.5262944
H           1.0824456     0.8912302    -0.1737659
18
420_C7H8N2O_8-7-13-15 (15,) energy =    -456.3063645
N           2.6582437    -0.6290125     1.6005461
H           1.7521042    -0.5808910     1.1455020
H           2.9017842    -1.5887971     1.8195585
C           5.8137509     1.3591856    -0.3936984
H           6.6289817     1.8618273    -0.9051036
C           4.5418346     1.9164051    -0.3808590
H           4.3364870     2.8579100    -0.8792615
C           3.4680024     1.3005367     0.2814534
C           3.6816195     0.0533902     0.9200648
C           4.9737487    -0.5008867     0.9018566
H           5.1400813    -1.4582618     1.3917801
C           6.0264179     0.1441890     0.2640672
H           7.0131370    -0.3117472     0.2698694
C           2.1750703     2.0637271     0.2618883
O           1.9718982     2.9753595    -0.5310840
N           1.1988724     1.6841737     1.1689332
H           0.4413893     2.3537451     1.2393044
H           1.4910021     1.2534436     2.0396007
18
420_C7H8N2O_8-7-13-15 (30,) energy =    -456.3059255
N           2.6621695    -0.6670417     1.5717819
H           1.7320347    -0.5246349     1.1933973
H           2.8627173    -1.6509844     1.7084791
C           5.8215781     1.3803658    -0.3486027
H           6.6390054     1.9013769    -0.8374663
C           4.5441096     1.9255620    -0.3428810
H           4.3364671     2.8687841    -0.8376847
C           3.4715672     1.2882586     0.2993652
C           3.6827894     0.0255235     0.9059829
C           4.9785223    -0.5223215     0.8843896
H           5.1462701    -1.4905314     1.3517482
C           6.0329849     0.1472738     0.2759900
H           7.0223960    -0.3029255     0.2793821
C           2.1473479     1.9888262     0.2167809
O           1.8676693     2.7541103    -0.6972942
N           1.2491897     1.7426670     1.2402501
H           0.4608473     2.3778017     1.2641773
H           1.5947062     1.4147204     2.1342561
18
420_C7H8N2O_8-7-13-15 (45,) energy =    -456.3039235
N           2.6602563    -0.7039663     1.5359734
H           1.7195124    -0.4902407     1.2258450
H           2.8221510    -1.7016817     1.6007377
C           5.8205358     1.4082567    -0.3069763
H           6.6393265     1.9479137    -0.7727908
C           4.5372335     1.9418633    -0.3017386
H           4.3284117     2.8914763    -0.7845723
C           3.4687604     1.2789323     0.3184072
C           3.6807635     0.0006047     0.8880712
C           4.9796893    -0.5399559     0.8588995
H           5.1515233    -1.5198991     1.2993406
C           6.0331339     0.1565591     0.2792582
H           7.0254936    -0.2870980     0.2757838
C           2.1156229     1.9175176     0.1880983
O           1.7587221     2.5063058    -0.8233617
N           1.3016557     1.8386575     1.3003363
H           0.4754365     2.4227758     1.2834233
H           1.6991999     1.6198770     2.2044819
18
420_C7H8N2O_8-7-13-15 (60,) energy =    -456.3009478
N           2.6228672    -0.6934897     1.4756742
H           1.7230710    -0.5634444     1.0266257
H           2.8081897    -1.6809710     1.6118419
C           5.8619491     1.3837563    -0.2696664
H           6.6956736     1.9188506    -0.7139471
C           4.5795573     1.9239801    -0.3093157
H           4.3932531     2.8745745    -0.8001755
C           3.4959237     1.2650433     0.2817869
C           3.6865028    -0.0087970     0.8588301
C           4.9805571    -0.5540888     0.8829398
H           5.1364987    -1.5328553     1.3321522
C           6.0552443     0.1387411     0.3341044
H           7.0468878    -0.3050070     0.3668391
C           2.1321475     1.8915277     0.1374918
O           1.6970079     2.2855043    -0.9364018
N           1.4581386     2.0862544     1.3160700
H           0.5105669     2.4361057     1.2670847
H           1.7667630     1.6437889     2.1708029
18
420_C7H8N2O_8-7-13-15 (75,) energy =    -456.2985165
N           2.6064248    -0.7639431     1.3880049
H           1.7155662    -0.6216016     0.9248584
H           2.7923797    -1.7547512     1.4935588
C           5.8504802     1.4101720    -0.2208156
H           6.6841810     1.9721414    -0.6306742
C           4.5584840     1.9297706    -0.2732692
H           4.3740638     2.8958271    -0.7351380
C           3.4760783     1.2297540     0.2670431
C           3.6763687    -0.0518417     0.8204861
C           4.9800064    -0.5720440     0.8636503
H           5.1435759    -1.5571238     1.2958870
C           6.0533262     0.1542578     0.3554089
H           7.0524946    -0.2711846     0.4003483
C           2.0889135     1.8132857     0.1336470
O           1.5195602     1.9392675    -0.9421241
N           1.5438468     2.2539035     1.3103638
H           0.5808649     2.5637990     1.3000575
H           1.9571931     2.0018505     2.1967673
18
420_C7H8N2O_8-7-13-15 (90,) energy =    -456.2985437
N           2.5711617    -0.8535614     1.2549531
H           1.7055802    -0.7016022     0.7477304
H           2.7669665    -1.8439348     1.3404221
C           5.8228370     1.4477881    -0.1427600
H           6.6565457     2.0433880    -0.5020380
C           4.5194948     1.9394452    -0.2208962
H           4.3333679     2.9260085    -0.6380775
C           3.4368624     1.1827550     0.2319913
C           3.6501890    -0.1028763     0.7732430
C           4.9661268    -0.5854730     0.8585746
H           5.1420322    -1.5736821     1.2785214
C           6.0367970     0.1828000     0.4079497
H           7.0451974    -0.2161160     0.4817685
C           2.0309101     1.7344421     0.1733323
O           1.2640944     1.5246897    -0.7595194
N           1.6618845     2.4385781     1.2822603
H           0.7195459     2.8005580     1.3393003
H           2.2839496     2.5550512     2.0674982
18
420_C7H8N2O_8-7-13-15 (105,) energy =    -456.3013785
N           2.5979307    -1.0186990     1.1879561
H           1.7249391    -0.8459606     0.7001451
H           2.8173640    -2.0060923     1.2305066
C           5.7733585     1.4660602    -0.0568770
H           6.5867583     2.1091578    -0.3786675
C           4.4530053     1.9121503    -0.1215523
H           4.2341341     2.9124463    -0.4884256
C           3.3931039     1.0887393     0.2660939
C           3.6502174    -0.2104412     0.7605252
C           4.9846842    -0.6420580     0.8428029
H           5.1957927    -1.6380404     1.2262761
C           6.0288670     0.1855483     0.4380725
H           7.0509999    -0.1781164     0.5059901
C           1.9737701     1.5940658     0.2757522
O           1.0945733     1.1371162    -0.4502514
N           1.7091486     2.5124270     1.2494001
H           0.7799632     2.9079577     1.3015288
H           2.4390757     2.8894931     1.8344658
18
420_C7H8N2O_8-7-13-15 (120,) energy =    -456.3049942
N           2.6502669    -1.1294708     1.1576959
H           1.7561803    -0.9280797     0.7215469
H           2.8830918    -2.1139755     1.1499951
C           5.7613856     1.4750909     0.0021531
H           6.5597762     2.1463356    -0.2988727
C           4.4337882     1.8984772    -0.0253782
H           4.1934411     2.9088843    -0.3488771
C           3.3882884     1.0397579     0.3311098
C           3.6740092    -0.2799267     0.7593365
C           5.0193885    -0.6873900     0.8083198
H           5.2520416    -1.6960388     1.1429157
C           6.0436231     0.1761449     0.4329374
H           7.0724852    -0.1725937     0.4722843
C           1.9686802     1.5250828     0.3826163
O           1.0367007     0.9329001    -0.1610259
N           1.7632849     2.6168160     1.1749713
H           0.8275943     2.9917964     1.2490264
H           2.5181477     3.0681154     1.6678434
18
420_C7H8N2O_8-7-13-15 (135,) energy =    -456.3082051
N           2.6840764    -1.1963512     1.1263392
H           1.7725668    -0.9734694     0.7393565
H           2.9249215    -2.1776114     1.0905041
C           5.7591116     1.4799721     0.0500253
H           6.5503248     2.1665941    -0.2346101
C           4.4297267     1.8921915     0.0445884
H           4.1802051     2.9077232    -0.2536141
C           3.3877987     1.0167814     0.3810588
C           3.6874731    -0.3197662     0.7540041
C           5.0389066    -0.7161156     0.7795295
H           5.2800560    -1.7353746     1.0733816
C           6.0536360     0.1671087     0.4316199
H           7.0851586    -0.1755594     0.4511307
C           1.9708671     1.4924871     0.4394928
O           1.0140760     0.8158716     0.0569802
N           1.7876071     2.7241455     1.0062743
H           0.8359593     3.0363596     1.1418786
H           2.5241068     3.1778131     1.5244532
18
420_C7H8N2O_8-7-13-15 (150,) energy =    -456.3103623
N           2.6839309    -1.2302576     1.0875302
H           1.7515524    -0.9739868     0.7785793
H           2.9203681    -2.2096331     1.0117085
C           5.7413116     1.4893073     0.0868404
H           6.5303163     2.1841975    -0.1832364
C           4.4159639     1.9054658     0.1233258
H           4.1700972     2.9307106    -0.1407472
C           3.3705252     1.0249360     0.4475607
C           3.6715753    -0.3343678     0.7411590
C           5.0239040    -0.7363510     0.7196675
H           5.2636679    -1.7708329     0.9557305
C           6.0359403     0.1567156     0.3988074
H           7.0656997    -0.1914146     0.3816038
C           1.9599895     1.5035482     0.5202994
O           0.9840443     0.7801221     0.3018132
N           1.7864630     2.8236329     0.8599658
H           0.8312590     3.1081520     1.0312869
H           2.5110855     3.3195595     1.3573119
18
420_C7H8N2O_8-7-13-15 (165,) energy =    -456.3110555
N           2.7004742    -1.2667758     1.0563258
H           1.7491415    -0.9822269     0.8446463
H           2.9311549    -2.2430835     0.9420716
C           5.7391494     1.4954080     0.1410028
H           6.5259150     2.2002503    -0.1087880
C           4.4179639     1.9118641     0.2193022
H           4.1805268     2.9475267    -0.0065528
C           3.3691089     1.0253165     0.5275780
C           3.6724131    -0.3520293     0.7382426
C           5.0245240    -0.7573874     0.6656702
H           5.2620585    -1.8045309     0.8400474
C           6.0338250     0.1456736     0.3758726
H           7.0614691    -0.2047194     0.3206430
C           1.9603796     1.4983774     0.6032884
O           0.9829449     0.7439226     0.5439116
N           1.7640126     2.8588420     0.7086907
H           0.8054180     3.1244727     0.8940080
H           2.4722766     3.4340157     1.1410920
18
420_C7H8N2O_8-7-13-15 (180,) energy =    -456.3103097
N           2.7145391    -1.2905842     1.0337144
H           1.7522683    -0.9805676     0.9384030
H           2.9305887    -2.2628169     0.8711527
C           5.7471068     1.4961420     0.2006406
H           6.5351374     2.2095759    -0.0185994
C           4.4324634     1.9168674     0.3264823
H           4.2154064     2.9683744     0.1643396
C           3.3765178     1.0275079     0.6092751
C           3.6758573    -0.3633825     0.7380512
C           5.0228098    -0.7762186     0.6029167
H           5.2517756    -1.8341353     0.7108750
C           6.0341059     0.1312021     0.3443953
H           7.0568131    -0.2239296     0.2454002
C           1.9675522     1.4957294     0.6930706
O           1.0014882     0.7303669     0.8072871
N           1.7309839     2.8490706     0.5624555
H           0.7754274     3.1105130     0.7691845
H           2.4319744     3.5153452     0.8515881
