18
064_C5H8N4O_13-0-2-3 (-165,) energy =    -489.5987024
N           4.1559671    -0.6815227    -0.3265506
H           4.0695900    -1.6013920     0.0860509
C           3.5597735    -0.4041520    -1.5471355
N           3.0101431    -1.4976488    -2.1714446
H           3.2593857    -2.4163274    -1.8313126
C           2.5433354    -1.4061299    -3.5459093
H           1.7078768    -2.0962929    -3.6952373
H           3.3327243    -1.6364048    -4.2743553
H           2.2013395    -0.3853243    -3.7175044
O           3.5108510     0.7339977    -2.0159802
C           5.1309176     1.2443924     2.4109255
H           5.4499482     1.3241577     3.4409920
N           4.8544515     0.0111447     1.8473683
C           4.5044552     0.2935967     0.6115504
N           4.5427503     1.6222887     0.3346761
H           4.2682934     2.0020195    -0.5633587
C           4.9446528     2.2528885     1.5033982
H           5.0504216     3.3249986     1.5643363
18
064_C5H8N4O_13-0-2-3 (-150,) energy =    -489.5969330
N           4.3809148    -0.6921513    -0.4257918
H           4.3020084    -1.6193653    -0.0252782
C           3.6957023    -0.4051321    -1.6033693
N           3.0211398    -1.4694114    -2.1469302
H           3.1913176    -2.3908828    -1.7679909
C           2.4773963    -1.3964933    -3.4943783
H           1.5540700    -1.9805588    -3.5500174
H           3.1816635    -1.7671954    -4.2513571
H           2.2542464    -0.3508728    -3.7073970
O           3.6716094     0.7267578    -2.0863633
C           5.0144704     1.1909897     2.4441161
H           5.2351691     1.2547593     3.5007230
N           4.8433420    -0.0361374     1.8267505
C           4.5933143     0.2671774     0.5723606
N           4.6019455     1.6034418     0.3322571
H           4.3825415     1.9999540    -0.5735057
C           4.8651635     2.2164515     1.5489498
H           4.9174431     3.2898110     1.6463408
18
064_C5H8N4O_13-0-2-3 (-135,) energy =    -489.5936945
N           4.6071057    -0.6745086    -0.5389811
H           4.5475018    -1.6128390    -0.1584677
C           3.8515720    -0.3952754    -1.6857237
N           3.0585921    -1.4238390    -2.1199437
H           3.1358615    -2.3237527    -1.6671576
C           2.4104274    -1.3797491    -3.4215519
H           1.4218258    -1.8439885    -3.3573238
H           2.9960723    -1.8912014    -4.1969668
H           2.2973824    -0.3316660    -3.6998735
O           3.8636895     0.7173016    -2.2085597
C           4.8934322     1.1468285     2.4316841
H           5.0165406     1.1902681     3.5050704
N           4.8330503    -0.0692732     1.7713933
C           4.6829042     0.2578230     0.5078936
N           4.6546414     1.5996825     0.3017428
H           4.5014164     2.0158776    -0.6085115
C           4.7779653     2.1896196     1.5520627
H           4.7711198     3.2610185     1.6800046
18
064_C5H8N4O_13-0-2-3 (-120,) energy =    -489.5892569
N           4.8337067    -0.6087122    -0.6595202
H           4.8204837    -1.5602842    -0.3049625
C           4.0131760    -0.3567407    -1.7822447
N           3.1269959    -1.3507884    -2.0865313
H           3.1165188    -2.1892302    -1.5239057
C           2.3430360    -1.3364222    -3.3110743
H           1.2906559    -1.5420378    -3.0897116
H           2.7057020    -2.0741849    -4.0378349
H           2.4282925    -0.3384103    -3.7419805
O           4.0578044     0.7207373    -2.3677384
C           4.7646877     1.1110068     2.3899668
H           4.7932336     1.1227745     3.4708166
N           4.8229168    -0.0834024     1.6895661
C           4.7637778     0.2790819     0.4287230
N           4.6769005     1.6246746     0.2628330
H           4.5999278     2.0734510    -0.6409241
C           4.6655036     2.1767340     1.5366255
H           4.5860018     3.2408550     1.6967678
18
064_C5H8N4O_13-0-2-3 (-105,) energy =    -489.5842750
N           5.0130926    -0.5308870    -0.7098327
H           5.0418658    -1.4882353    -0.3686999
C           4.1467083    -0.3313839    -1.8280705
N           3.1746665    -1.2761739    -1.9781868
H           3.1045317    -2.0202947    -1.2993739
C           2.2789192    -1.2958357    -3.1233441
H           1.2367223    -1.3467041    -2.7909973
H           2.4843914    -2.1464371    -3.7847087
H           2.4325522    -0.3675628    -3.6745364
O           4.2380361     0.6756574    -2.5172664
C           4.5720432     1.1020653     2.3624784
H           4.4928204     1.0884905     3.4407856
N           4.7429415    -0.0727491     1.6465011
C           4.8005676     0.3163831     0.3938010
N           4.6795574     1.6631466     0.2488667
H           4.6858206     2.1408270    -0.6426150
C           4.5176914     2.1838611     1.5259474
H           4.3821153     3.2402720     1.6990728
18
064_C5H8N4O_13-0-2-3 (-90,) energy =    -489.5801100
N           5.1568473    -0.3350077    -0.9505773
H           5.9999489     0.0780480    -1.3434693
C           4.1827978    -0.3341649    -2.0360269
N           3.3306992    -1.3844740    -1.9430103
H           3.3111256    -1.8444513    -1.0410808
C           2.1613263    -1.4868101    -2.8008301
H           1.2812625    -1.0024675    -2.3582671
H           1.9328217    -2.5405317    -2.9852297
H           2.3932141    -0.9972086    -3.7475619
O           4.2547797     0.4521529    -2.9648623
C           3.7224031     0.9818417     1.9719852
H           2.9602224     0.9621192     2.7388287
N           3.7175383     0.0626277     0.9388817
C           4.7634917     0.3694340     0.2032494
N           5.4595232     1.4275930     0.7181654
H           6.2522085     1.8906294     0.2981529
C           4.7885429     1.8311480     1.8681521
H           5.1435501     2.6471935     2.4784835
18
064_C5H8N4O_13-0-2-3 (-75,) energy =    -489.5850424
N           5.1480668    -0.2019152    -1.0464093
H           5.9384742     0.2833069    -1.4631300
C           4.1686039    -0.3309152    -2.1048470
N           3.2568147    -1.3063493    -1.8529569
H           3.1626738    -1.5569344    -0.8733583
C           2.0912596    -1.4636311    -2.7090700
H           1.2672142    -0.7975006    -2.4204583
H           1.7440409    -2.4994443    -2.6592040
H           2.3854872    -1.2315371    -3.7334520
O           4.2969906     0.2791253    -3.1539229
C           3.6846371     0.8922986     1.9506945
H           2.9174523     0.8133975     2.7084552
N           3.6902663     0.0517753     0.8516185
C           4.7367774     0.4193276     0.1433926
N           5.4229447     1.4401374     0.7374033
H           6.2339745     1.9176973     0.3724760
C           4.7452479     1.7523926     1.9134134
H           5.0895566     2.5278200     2.5799694
18
064_C5H8N4O_13-0-2-3 (-60,) energy =    -489.5899984
N           5.1409192    -0.0813103    -1.0982010
H           5.8964331     0.4415038    -1.5305824
C           4.1861630    -0.3521998    -2.1398921
N           3.2194362    -1.2336302    -1.7712487
H           3.0669636    -1.3091604    -0.7674380
C           2.0964982    -1.4961539    -2.6572985
H           1.2888949    -0.7604618    -2.5417428
H           1.6984587    -2.4931273    -2.4481464
H           2.4543403    -1.4603787    -3.6871074
O           4.3787494     0.0761667    -3.2679578
C           3.6816849     0.8365509     1.9588447
H           2.9141110     0.7190564     2.7109379
N           3.6762137     0.0667497     0.8085777
C           4.7255151     0.4660058     0.1196799
N           5.4215729     1.4417039     0.7744157
H           6.2506727     1.9166188     0.4489327
C           4.7495966     1.6867730     1.9702859
H           5.0994723     2.4208485     2.6792460
18
064_C5H8N4O_13-0-2-3 (-45,) energy =    -489.5937503
N           5.0976896     0.0501230    -1.1473828
H           5.8389700     0.5850078    -1.5857264
C           4.1821673    -0.3517115    -2.1707858
N           3.1621526    -1.1338627    -1.7345079
H           2.9739823    -1.1023703    -0.7332694
C           2.0972321    -1.5218815    -2.6432963
H           1.2897693    -0.7779474    -2.6860174
H           1.6770202    -2.4786198    -2.3198051
H           2.5181923    -1.6332994    -3.6434883
O           4.4371822    -0.0823727    -3.3367907
C           3.6890296     0.8096596     1.9758966
H           2.9265937     0.6670592     2.7286685
N           3.6485013     0.1114390     0.7811217
C           4.7009521     0.5216489     0.1019801
N           5.4300347     1.4380562     0.8056905
H           6.2730742     1.9026203     0.5019777
C           4.7782172     1.6300076     2.0224386
H           5.1537891     2.3141246     2.7672216
18
064_C5H8N4O_13-0-2-3 (-30,) energy =    -489.5959676
N           5.0573720     0.1793728    -1.1859293
H           5.8067338     0.7019980    -1.6213694
C           4.2018078    -0.3479837    -2.1942153
N           3.1309110    -1.0410291    -1.7345530
H           2.9046276    -0.9347572    -0.7461627
C           2.1361277    -1.5578594    -2.6563377
H           1.3198226    -0.8438614    -2.8329922
H           1.7117884    -2.4825513    -2.2536837
H           2.6221006    -1.7695389    -3.6098210
O           4.5283979    -0.2185460    -3.3677321
C           3.6927034     0.7939094     1.9869505
H           2.9306876     0.6347207     2.7367130
N           3.6184535     0.1681689     0.7539876
C           4.6815709     0.5771956     0.0894672
N           5.4447744     1.4295462     0.8372941
H           6.3097207     1.8688603     0.5588703
C           4.8084780     1.5738518     2.0689470
H           5.2108098     2.2041108     2.8464977
18
064_C5H8N4O_13-0-2-3 (-15,) energy =    -489.5969372
N           4.9465973     0.2701712    -1.2913596
H           5.7351731     0.7140391    -1.7412529
C           4.1111756    -0.3575846    -2.2504099
N           2.9827164    -0.9213051    -1.7560313
H           2.7690767    -0.7602338    -0.7724562
C           2.0227706    -1.5719930    -2.6262649
H           1.0797165    -1.0124295    -2.6725266
H           1.8085896    -2.5881221    -2.2750407
H           2.4525473    -1.6235527    -3.6273738
O           4.4818753    -0.3783115    -3.4188739
C           3.7365408     0.8462588     1.9477865
H           2.9916222     0.7094374     2.7187852
N           3.5799752     0.2686102     0.6990526
C           4.6451060     0.6306105     0.0099466
N           5.4850558     1.4099689     0.7560507
H           6.3663845     1.8031802     0.4607845
C           4.9001217     1.5541235     2.0131101
H           5.3673777     2.1322962     2.7947868
18
064_C5H8N4O_13-0-2-3 (0,) energy =    -489.5971830
N           4.8766043     0.3765362    -1.3548211
H           5.7323757     0.7053268    -1.7782399
C           4.0913987    -0.3572793    -2.2765740
N           2.9240047    -0.8411818    -1.7886234
H           2.6995415    -0.6413712    -0.8146800
C           2.0171705    -1.6069099    -2.6207353
H           1.0549550    -1.0926355    -2.7368343
H           1.8327805    -2.5984069    -2.1898278
H           2.4765081    -1.7250460    -3.6029178
O           4.5158872    -0.4980417    -3.4185718
C           3.7630126     0.8400016     1.9348104
H           3.0311851     0.6939168     2.7165838
N           3.5629648     0.3169156     0.6684209
C           4.6257635     0.6715125    -0.0287383
N           5.5023777     1.3994686     0.7273714
H           6.3871639     1.7813220     0.4276453
C           4.9481668     1.5108131     2.0017250
H           5.4476365     2.0454813     2.7943506
18
064_C5H8N4O_13-0-2-3 (15,) energy =    -489.5969329
N           4.8761709     0.5640423    -1.2252937
H           5.8122594     0.7754587    -1.5419203
C           4.1887999    -0.2305785    -2.1775166
N           2.9389498    -0.6145880    -1.8215077
H           2.6486562    -0.4369635    -0.8606276
C           2.1586762    -1.4852509    -2.6800110
H           1.0984230    -1.2272896    -2.5966885
H           2.2836700    -2.5454757    -2.4202229
H           2.4846898    -1.3424293    -3.7113593
O           4.7397494    -0.4677792    -3.2465304
C           3.6103882     0.8437928     2.0316175
H           2.8346455     0.6722620     2.7643329
N           3.4638140     0.4047841     0.7264989
C           4.5722654     0.7661335     0.1090366
N           5.4264486     1.4208035     0.9524541
H           6.3274624     1.8100529     0.7175186
C           4.8076544     1.4740716     2.2004406
H           5.2802188     1.9417486     3.0499028
18
064_C5H8N4O_13-0-2-3 (30,) energy =    -489.5959675
N           4.8087741     0.7012677    -1.2674210
H           5.7648682     0.8612433    -1.5582666
C           4.1850424    -0.2031834    -2.1727862
N           2.9047810    -0.5298512    -1.8685057
H           2.5821670    -0.2982119    -0.9295333
C           2.1851477    -1.5077824    -2.6636558
H           1.1179223    -1.2667823    -2.6577551
H           2.3168936    -2.5314494    -2.2866364
H           2.5583031    -1.4667910    -3.6879930
O           4.7973270    -0.5436748    -3.1776249
C           3.6101078     0.8341355     2.0269485
H           2.8382920     0.6529037     2.7615292
N           3.4281739     0.4764915     0.7017102
C           4.5427983     0.8249364     0.0890815
N           5.4326676     1.3997438     0.9527660
H           6.3486422     1.7584791     0.7270493
C           4.8332889     1.4085099     2.2110735
H           5.3351473     1.8104834     3.0772359
18
064_C5H8N4O_13-0-2-3 (45,) energy =    -489.5937502
N           4.7222833     0.8063449    -1.3066513
H           5.6836251     0.9542794    -1.5924544
C           4.1642107    -0.2054258    -2.1503687
N           2.8520622    -0.4659709    -1.9203669
H           2.4908488    -0.1668099    -1.0154312
C           2.1866661    -1.5476179    -2.6259584
H           1.1194176    -1.3222635    -2.7076961
H           2.3055149    -2.5154295    -2.1195054
H           2.6157815    -1.6257098    -3.6258655
O           4.8398880    -0.6572837    -3.0649244
C           3.6234847     0.8189399     2.0262998
H           2.8634992     0.6312445     2.7716191
N           3.3949147     0.5364130     0.6904177
C           4.5080484     0.8698210     0.0683789
N           5.4393482     1.3703895     0.9336423
H           6.3687859     1.6899098     0.7037973
C           4.8718206     1.3393168     2.2060967
H           5.4084702     1.6822915     3.0768134
18
064_C5H8N4O_13-0-2-3 (60,) energy =    -489.5899986
N           4.6336316     0.9181332    -1.3385103
H           5.5924989     1.0845469    -1.6283024
C           4.1576872    -0.1884617    -2.1252664
N           2.8191284    -0.3957581    -2.0128374
H           2.3960834    -0.0218891    -1.1655763
C           2.2096018    -1.5655681    -2.6252840
H           1.1545854    -1.3579780    -2.8249585
H           2.2812728    -2.4587145    -1.9896745
H           2.7210260    -1.7679423    -3.5672952
O           4.9081887    -0.7398041    -2.9163860
C           3.6443868     0.7941383     2.0265207
H           2.9007185     0.5915720     2.7845068
N           3.3693548     0.5894999     0.6855408
C           4.4750424     0.9205408     0.0508081
N           5.4458778     1.3479041     0.9110350
H           6.3811408     1.6422181     0.6711355
C           4.9128513     1.2691836     2.1961101
H           5.4825523     1.5546021     3.0666730
18
064_C5H8N4O_13-0-2-3 (75,) energy =    -489.5850422
N           4.5301954     0.9995609    -1.3550137
H           5.4760001     1.2172295    -1.6581893
C           4.1535898    -0.1945833    -2.0819334
N           2.8073490    -0.3734374    -2.1257269
H           2.2908244     0.1095242    -1.3968781
C           2.2455061    -1.6077325    -2.6520825
H           1.2348311    -1.4147006    -3.0224602
H           2.2019900    -2.4034505    -1.8964149
H           2.8733201    -1.9446547    -3.4780085
O           4.9842249    -0.8364421    -2.7042344
C           3.6913103     0.7683232     2.0456250
H           2.9760994     0.5520096     2.8270859
N           3.3539244     0.6267117     0.7112365
C           4.4388675     0.9602948     0.0452934
N           5.4556273     1.3322453     0.8781059
H           6.3933162     1.5929304     0.6101732
C           4.9766637     1.2108037     2.1802660
H           5.5868109     1.4543788     3.0361426
18
064_C5H8N4O_13-0-2-3 (90,) energy =    -489.5801100
N           4.4068007     1.1079912    -1.3401596
H           5.3212225     1.4089844    -1.6703640
C           4.1407079    -0.1496638    -2.0289837
N           2.8156508    -0.3235170    -2.2567285
H           2.2034605     0.2710836    -1.7116490
C           2.2942893    -1.5850287    -2.7572573
H           1.4055389    -1.3984744    -3.3670692
H           2.0316782    -2.2745197    -1.9444856
H           3.0649878    -2.0474083    -3.3753282
O           5.0407099    -0.8548438    -2.4519850
C           3.7765351     0.7688596     2.0979884
H           3.1072687     0.5349169     2.9145119
N           3.3543961     0.6831910     0.7839340
C           4.3998032     1.0302344     0.0656107
N           5.4727371     1.3577118     0.8471957
H           6.4036688     1.5854375     0.5299093
C           5.0750656     1.1900734     2.1698026
H           5.7381372     1.3987431     2.9951866
18
064_C5H8N4O_13-0-2-3 (105,) energy =    -489.5842759
N           4.0978055     1.1984312    -1.2221034
H           3.2892967     1.7868864    -1.4058460
C           4.0549920    -0.0767299    -1.8643821
N           2.8083476    -0.4990908    -2.2214698
H           2.0116987     0.0774186    -1.9925623
C           2.5876355    -1.7163224    -2.9855229
H           2.2381995    -1.4992976    -4.0023388
H           1.8510098    -2.3528555    -2.4840536
H           3.5392887    -2.2460830    -3.0385675
O           5.0683082    -0.7533586    -1.9780294
C           4.2351362     1.5774533     2.2618982
H           3.8796104     2.0191395     3.1826148
N           3.6362042     1.8807358     1.0489805
C           4.3144639     1.1816044     0.1684509
N           5.3126518     0.4465019     0.7276082
H           5.9288732    -0.1633938     0.2067844
C           5.2617118     0.6880792     2.0940737
H           5.9411351     0.2118576     2.7839637
18
064_C5H8N4O_13-0-2-3 (120,) energy =    -489.5892568
N           3.9407943     1.1010748    -1.1477381
H           3.1082646     1.6618298    -1.3020851
C           3.9615177    -0.1612086    -1.7829030
N           2.7671922    -0.5641132    -2.3094841
H           1.9659846     0.0458335    -2.2341699
C           2.6551774    -1.7429434    -3.1533486
H           2.5005962    -1.4787372    -4.2070585
H           1.8236739    -2.3713866    -2.8180218
H           3.5860778    -2.3026932    -3.0580510
O           4.9717754    -0.8576232    -1.7706077
C           4.3843376     1.7119984     2.2716723
H           4.1152660     2.2259430     3.1841724
N           3.6955494     1.9474538     1.0923927
C           4.2823349     1.1663540     0.2147644
N           5.3064823     0.4454999     0.7412186
H           5.8517423    -0.2220940     0.2110198
C           5.3746886     0.7855280     2.0855317
H           6.0987497     0.3408894     2.7506225
18
064_C5H8N4O_13-0-2-3 (135,) energy =    -489.5936958
N           3.7259950     1.0083383    -1.0245162
H           2.8697334     1.5397144    -1.1397596
C           3.8115322    -0.2263094    -1.6819556
N           2.6805978    -0.6009277    -2.3572065
H           1.9139970     0.0537013    -2.4251707
C           2.6909707    -1.7223268    -3.2838167
H           2.8469341    -1.4034172    -4.3229319
H           1.7439514    -2.2660415    -3.2162135
H           3.5065861    -2.3846595    -2.9926127
O           4.8122243    -0.9346883    -1.5918608
C           4.4753704     1.8162451     2.2935945
H           4.2874191     2.3870728     3.1924978
N           3.6902020     1.9871839     1.1654107
C           4.1974122     1.1486735     0.2904044
N           5.2633327     0.4560858     0.7679116
H           5.7411375    -0.2598451     0.2346445
C           5.4455643     0.8744104     2.0787400
H           6.2256749     0.4678725     2.7036155
18
064_C5H8N4O_13-0-2-3 (150,) energy =    -489.5969328
N           3.5454468     0.8917947    -0.8884172
H           2.6746985     1.4032867    -0.9702142
C           3.6860501    -0.3072109    -1.5831941
N           2.6258543    -0.6263803    -2.3941742
H           1.9216379     0.0786907    -2.5637855
C           2.7327808    -1.7020530    -3.3680844
H           3.0757080    -1.3469675    -4.3492846
H           1.7602921    -2.1891869    -3.4849151
H           3.4536805    -2.4258761    -2.9875062
O           4.6700105    -1.0329872    -1.4423902
C           4.5778008     1.8963765     2.2914742
H           4.4684220     2.5261384     3.1636171
N           3.7052318     2.0044771     1.2222572
C           4.1331024     1.1039417     0.3655118
N           5.2279404     0.4287206     0.7998288
H           5.6511842    -0.3271118     0.2751622
C           5.5205399     0.9305814     2.0599153
H           6.3461279     0.5551578     2.6445190
18
064_C5H8N4O_13-0-2-3 (165,) energy =    -489.5986984
N           3.3905923     0.7674315    -0.7500950
H           2.5280561     1.2899479    -0.8331208
C           3.5926091    -0.3791959    -1.5024198
N           2.6112604    -0.6281096    -2.4311304
H           1.9573772     0.1123478    -2.6453401
C           2.7882549    -1.6648714    -3.4355325
H           3.2396062    -1.2804052    -4.3602732
H           1.8205881    -2.1170562    -3.6724202
H           3.4478742    -2.4257387    -3.0179428
O           4.5619254    -1.1199351    -1.3307896
C           4.6666284     1.9706960     2.2630714
H           4.6277875     2.6606677     3.0947099
N           3.7226100     2.0218233     1.2524514
C           4.0765045     1.0566081     0.4322634
N           5.1871362     0.3894305     0.8381635
H           5.5646391    -0.4031634     0.3329260
C           5.5768805     0.9733579     2.0349572
H           6.4407078     0.6281625     2.5817072
18
064_C5H8N4O_13-0-2-3 (180,) energy =    -489.5991167
N           3.9265673    -0.6673169    -0.2305825
H           3.8986291    -1.5992536     0.1602541
C           3.4427018    -0.4009579    -1.4984877
N           3.0172657    -1.5120479    -2.1865155
H           3.3123669    -2.4204622    -1.8562327
C           2.6264331    -1.4100057    -3.5832299
H           1.8491236    -2.1481385    -3.8019759
H           3.4710376    -1.5658233    -4.2681381
H           2.2285273    -0.4087093    -3.7492223
O           3.3787801     0.7413033    -1.9569732
C           5.2409162     1.2280468     2.3803460
H           5.6579437     1.3006897     3.3753364
N           4.8675417     0.0037200     1.8547584
C           4.4132805     0.2939140     0.6548533
N           4.4680945     1.6199360     0.3676479
H           4.1421403     2.0036271    -0.5113487
C           5.0057449     2.2389748     1.4870240
H           5.1628582     3.3057477     1.5267850
