18
064_C5H8N4O_0-2-3-5 (-165,) energy =    -489.5965461
N           4.8977300     0.3043224    -1.3250755
H           5.7781343     0.5548347    -1.7519125
C           4.0563975    -0.3765987    -2.2368293
N           2.8204304    -0.6915544    -1.7705483
H           2.6380222    -0.4995798    -0.7857629
C           1.9959689    -1.6573036    -2.4747696
H           0.9396131    -1.3953262    -2.3598067
H           2.1480209    -2.6792181    -2.1004331
H           2.2582414    -1.6318315    -3.5332611
O           4.4911983    -0.6265648    -3.3551968
C           3.8174943     0.9350237     1.9488105
H           3.0787648     0.8601744     2.7341521
N           3.5807401     0.3951846     0.6958208
C           4.6641425     0.6581516    -0.0096866
N           5.5893432     1.3439510     0.7275511
H           6.4959142     1.6607776     0.4172646
C           5.0453837     1.5257359     1.9981831
H           5.5817130     2.0448629     2.7769245
18
064_C5H8N4O_0-2-3-5 (-150,) energy =    -489.5942061
N           4.8866984     0.2995667    -1.3198700
H           5.7632975     0.5769393    -1.7391896
C           4.0236767    -0.2937269    -2.2711726
N           2.7617043    -0.5766432    -1.8374607
H           2.5852694    -0.3779119    -0.8520858
C           2.0470748    -1.7033095    -2.4210527
H           0.9696579    -1.5518654    -2.3075602
H           2.3222920    -2.6559383    -1.9467593
H           2.2874069    -1.7590071    -3.4836992
O           4.4699086    -0.5377037    -3.3850586
C           3.7627390     0.9535208     1.9353603
H           2.9995388     0.9161671     2.6996600
N           3.5221642     0.4535021     0.6668097
C           4.6377516     0.6561069    -0.0066182
N           5.5874670     1.2658408     0.7653840
H           6.5271233     1.5090932     0.4887810
C           5.0259672     1.4590137     2.0264017
H           5.5746669     1.9298742     2.8269305
18
064_C5H8N4O_0-2-3-5 (-135,) energy =    -489.5900750
N           4.8717015     0.3094471    -1.3251189
H           5.7590648     0.5872212    -1.7225303
C           4.0029643    -0.2059250    -2.3147176
N           2.7153885    -0.4716449    -1.9192436
H           2.5335779    -0.2334908    -0.9427910
C           2.1213105    -1.7387986    -2.3411959
H           1.0338510    -1.6801502    -2.2408717
H           2.4873659    -2.5858731    -1.7436336
H           2.3680161    -1.9140562    -3.3896120
O           4.4657562    -0.4373580    -3.4226644
C           3.7035565     0.9590802     1.9170903
H           2.9191074     0.9550522     2.6604682
N           3.4640089     0.5091866     0.6298570
C           4.6079102     0.6521754    -0.0092118
N           5.5756598     1.1766337     0.8019596
H           6.5384046     1.3558708     0.5574916
C           4.9950170     1.3759029     2.0529440
H           5.5522361     1.7891848     2.8789933
18
064_C5H8N4O_0-2-3-5 (-120,) energy =    -489.5846277
N           4.8534243     0.3412046    -1.3537437
H           5.7471363     0.6240273    -1.7348948
C           3.9764974    -0.1007777    -2.3705049
N           2.6732738    -0.3749493    -1.9976053
H           2.4805042    -0.0697959    -1.0415439
C           2.2059956    -1.7470246    -2.2227866
H           1.1189715    -1.7775253    -2.1080499
H           2.6568076    -2.4621865    -1.5194778
H           2.4561927    -2.0470696    -3.2423112
O           4.4424734    -0.2988744    -3.4814148
C           3.6608186     0.9848780     1.8825347
H           2.8602553     1.0254679     2.6073970
N           3.4155721     0.6009064     0.5753289
C           4.5830219     0.6638535    -0.0321113
N           5.5718060     1.0763746     0.8175281
H           6.5543952     1.1650685     0.6040690
C           4.9795776     1.2843867     2.0611460
H           5.5487621     1.6234149     2.9124941
18
064_C5H8N4O_0-2-3-5 (-105,) energy =    -489.5801172
N           4.9738857     0.2910842    -1.4608445
H           5.9294346     0.2907770    -1.7978865
C           4.0201377     0.0677377    -2.4187242
N           2.6640074    -0.0023771    -1.9094479
H           2.1102417     0.4806758    -2.6181868
C           2.1862827    -1.4080693    -1.8839447
H           1.1280865    -1.4121118    -1.6091874
H           2.7403014    -1.9628084    -1.1208058
H           2.3130652    -1.9110077    -2.8510580
O           4.2945513    -0.0334864    -3.6017778
C           5.3969613     0.9271183     1.9388284
H           6.0438666     1.0743516     2.7926170
N           5.9216405     0.6601672     0.6886740
C           4.8671258     0.5402810    -0.0892546
N           3.6950860     0.7083475     0.5772167
H           2.7942564     0.6640138     0.1138546
C           4.0281611     0.9629045     1.8993101
H           3.2752097     1.1315036     2.6537286
18
064_C5H8N4O_0-2-3-5 (-90,) energy =    -489.5821474
N           4.9569605     0.2953578    -1.5052914
H           5.9136658     0.3030156    -1.8373193
C           4.0021441     0.1568469    -2.4831012
N           2.6557538     0.0373934    -1.9911304
H           2.0804539     0.3786614    -2.7609014
C           2.2699503    -1.3740323    -1.7431910
H           1.2117390    -1.4033050    -1.4698368
H           2.8502798    -1.7693233    -0.9048469
H           2.4320920    -2.0137428    -2.6206228
O           4.2784059     0.1800531    -3.6702724
C           5.3431722     0.7955684     1.9220815
H           5.9777386     0.8695382     2.7944198
N           5.8772736     0.5206908     0.6773579
C           4.8377051     0.5020583    -0.1287727
N           3.6641507     0.7409782     0.5162804
H           2.7721305     0.7937440     0.0385928
C           3.9828217     0.9361196     1.8527550
H           3.2257193     1.1398096     2.5942330
18
064_C5H8N4O_0-2-3-5 (-75,) energy =    -489.5840927
N           4.9493208     0.2613213    -1.5413404
H           5.9025576     0.3133848    -1.8780449
C           3.9899020     0.2267759    -2.5309146
N           2.6579157     0.0284054    -2.0671561
H           2.0668339     0.2709466    -2.8601522
C           2.3415654    -1.3544394    -1.6407151
H           1.2832287    -1.4002105    -1.3701074
H           2.9300146    -1.6154223    -0.7581251
H           2.5392543    -2.0926584    -2.4291406
O           4.2664384     0.3988497    -3.7063522
C           5.3066764     0.6876992     1.9012493
H           5.9276898     0.7048036     2.7862249
N           5.8424545     0.3819237     0.6642797
C           4.8226053     0.4512241    -0.1634881
N           3.6577054     0.7768676     0.4627184
H           2.7769767     0.9030682    -0.0204423
C           3.9632074     0.9332732     1.8079730
H           3.2082752     1.1835365     2.5373010
18
064_C5H8N4O_0-2-3-5 (-60,) energy =    -489.5850767
N           4.9218691     0.2075724    -1.5532629
H           5.8655008     0.3318206    -1.8985841
C           3.9525481     0.2919189    -2.5395513
N           2.6389020    -0.0080626    -2.1229530
H           2.0398829     0.1810739    -2.9223267
C           2.3690156    -1.3499441    -1.5690163
H           1.3070878    -1.4112901    -1.3158612
H           2.9446909    -1.5061933    -0.6555721
H           2.6098279    -2.1526398    -2.2785617
O           4.2232429     0.6265279    -3.6814096
C           5.2667277     0.6206063     1.8962377
H           5.8775517     0.6040870     2.7883023
N           5.7981893     0.2802249     0.6662102
C           4.7956921     0.4057653    -0.1751471
N           3.6441374     0.8032783     0.4377721
H           2.7727084     0.9793985    -0.0452815
C           3.9411564     0.9427588     1.7873754
H           3.1927280     1.2362017     2.5072465
18
064_C5H8N4O_0-2-3-5 (-45,) energy =    -489.5846042
N           4.8632438     0.1703294    -1.4895030
H           5.7925078     0.3803799    -1.8343414
C           3.8841692     0.3502502    -2.4654316
N           2.5989805    -0.0789486    -2.1254915
H           1.9970191     0.0803150    -2.9267739
C           2.3629921    -1.3761612    -1.4735775
H           1.2903613    -1.4742297    -1.2853027
H           2.8798622    -1.4271370    -0.5153956
H           2.6901735    -2.2217181    -2.0931034
O           4.1449544     0.8442283    -3.5510789
C           5.1827052     0.5740908     1.9685470
H           5.7810114     0.5366446     2.8684461
N           5.7163724     0.2127732     0.7452047
C           4.7316764     0.3732578    -0.1101390
N           3.5864735     0.8132125     0.4896066
H           2.7247099     1.0277912     0.0059620
C           3.8710740     0.9421344     1.8435500
H           3.1238773     1.2606061     2.5539952
18
064_C5H8N4O_0-2-3-5 (-30,) energy =    -489.5828428
N           4.8558050     0.1447131    -1.5223654
H           5.7652878     0.4173597    -1.8781562
C           3.8512228     0.3734052    -2.4717897
N           2.6089669    -0.1705084    -2.1888888
H           1.9936221    -0.0354541    -2.9814474
C           2.3904569    -1.3946662    -1.4136365
H           1.3252056    -1.6343005    -1.4601481
H           2.6586734    -1.2565084    -0.3653620
H           2.9592224    -2.2460619    -1.8086146
O           4.0787948     0.9766177    -3.5099592
C           5.1794819     0.4616593     1.9488774
H           5.7619941     0.3538229     2.8534665
N           5.6880365     0.0667825     0.7256640
C           4.7350930     0.3335967    -0.1381673
N           3.6322362     0.8792556     0.4592934
H           2.7929368     1.1790452    -0.0173891
C           3.9103414     0.9555371     1.8182513
H           3.1893877     1.3332720     2.5268450
18
064_C5H8N4O_0-2-3-5 (-15,) energy =    -489.5819033
N           4.8066548     0.5795645    -1.7675831
H           5.5116149     1.2234457    -2.1145394
C           3.7963253     0.4847743    -2.7534214
N           2.7593525    -0.3670475    -2.5106959
H           2.0922942    -0.3636910    -3.2685546
C           2.6649778    -1.4254358    -1.5175286
H           2.0375537    -2.2248937    -1.9219830
H           2.2321283    -1.0676296    -0.5779765
H           3.6537838    -1.8463084    -1.3089790
O           3.9061833     1.1188459    -3.7954691
C           3.8008079     0.9359366     1.5893927
H           3.0787093     1.2074211     2.3471908
N           3.5024656     1.0597851     0.2468092
C           4.5816401     0.6508817    -0.3845955
N           5.5690646     0.2776511     0.4891758
H           6.4617950    -0.1193888     0.2347223
C           5.0757297     0.4679076     1.7684281
H           5.6686183     0.2690902     2.6481594
18
064_C5H8N4O_0-2-3-5 (0,) energy =    -489.5819591
N           5.2180390     0.0592266    -1.4184413
H           6.2302438     0.1409857    -1.4676359
C           4.8699942    -1.1400886    -2.0912417
N           3.5433921    -1.4140760    -2.2460293
H           3.3940017    -2.3149923    -2.6768152
C           2.3814949    -0.6534136    -1.8205096
H           2.1156706    -0.8438545    -0.7753100
H           1.5397899    -0.9228337    -2.4653563
H           2.5669751     0.4176167    -1.9433847
O           5.7491253    -1.8326116    -2.5878646
C           3.7761009     0.5608606     1.7576084
H           3.3133987     0.1983289     2.6652820
N           4.1561322    -0.3099475     0.7558722
C           4.6747534     0.4511543    -0.1840493
N           4.6558033     1.7745352     0.1690028
H           4.9552238     2.5424438    -0.4141587
C           4.0856663     1.8541357     1.4272196
H           3.9729680     2.7922786     1.9489456
18
064_C5H8N4O_0-2-3-5 (15,) energy =    -489.5819032
N           5.2031311     0.0413150    -1.3925585
H           6.2095356     0.1558871    -1.4703656
C           4.8541655    -1.1353945    -2.0958900
N           3.5328301    -1.4704410    -2.1440297
H           3.3853610    -2.3232540    -2.6638956
C           2.3733714    -0.6506732    -1.8290088
H           2.0757521    -0.7475441    -0.7800138
H           1.5434780    -0.9640419    -2.4688964
H           2.5795905     0.4038775    -2.0379437
O           5.7241590    -1.7782959    -2.6700552
C           3.7727227     0.5425761     1.7874430
H           3.3120546     0.1803201     2.6962802
N           4.1463226    -0.3287048     0.7839422
C           4.6639979     0.4313659    -0.1569058
N           4.6500435     1.7551753     0.1970383
H           4.9494511     2.5233392    -0.3857914
C           4.0850035     1.8353428     1.4574077
H           3.9764286     2.7734863     1.9800222
18
064_C5H8N4O_0-2-3-5 (30,) energy =    -489.5828428
N           4.8332465     0.3955888    -1.4525280
H           5.6840542     0.8417349    -1.7768109
C           4.7283078    -0.9122588    -1.9438840
N           3.5058290    -1.5372244    -1.7593872
H           3.5072697    -2.4285921    -2.2394921
C           2.2149599    -0.8460302    -1.7024629
H           2.1291690    -0.2339954    -0.8035968
H           1.4300259    -1.6057083    -1.6690545
H           2.0457887    -0.2048895    -2.5769319
O           5.6504075    -1.4455191    -2.5428934
C           4.1152188     2.0362735     1.5553465
H           4.0779953     2.9391186     2.1492446
N           4.5220276     2.0715116     0.2347156
C           4.4473071     0.8256661    -0.1749007
N           4.0109004    -0.0179661     0.8093938
H           3.8996214    -1.0185204     0.7197694
C           3.7828446     0.7644614     1.9344390
H           3.4085322     0.3432726     2.8547939
18
064_C5H8N4O_0-2-3-5 (45,) energy =    -489.5846042
N           4.8458137     0.4048641    -1.4131891
H           5.6581351     0.8982876    -1.7642345
C           4.7282954    -0.8735305    -1.9565961
N           3.5470325    -1.5565393    -1.6572700
H           3.5770940    -2.4515295    -2.1346216
C           2.2323679    -0.9018767    -1.7379805
H           2.1812683    -0.0517887    -1.0578298
H           1.4708504    -1.6251555    -1.4337428
H           2.0002443    -0.5525276    -2.7528207
O           5.6043812    -1.3545755    -2.6578258
C           4.1939655     1.9992820     1.6292007
H           4.2196732     2.8824058     2.2525964
N           4.6404025     2.0399160     0.3211636
C           4.4655114     0.8182248    -0.1303655
N           3.9252622    -0.0125945     0.8091102
H           3.7400080    -0.9974653     0.6738219
C           3.7416130     0.7502429     1.9559029
H           3.3073941     0.3345148     2.8520522
18
064_C5H8N4O_0-2-3-5 (60,) energy =    -489.5850769
N           4.9262823     0.4130765    -1.4502866
H           5.6827875     0.9567247    -1.8468733
C           4.7500038    -0.8205583    -2.0560375
N           3.6230508    -1.5502948    -1.6239325
H           3.6787928    -2.4538788    -2.0866636
C           2.2870988    -0.9479576    -1.8047707
H           2.2064651    -0.0246575    -1.2292906
H           1.5382623    -1.6498522    -1.4277027
H           2.0658254    -0.7272044    -2.8574202
O           5.5341290    -1.2473323    -2.8879143
C           4.3055985     2.0084700     1.5922530
H           4.3608854     2.8858268     2.2218091
N           4.7697331     2.0389977     0.2903273
C           4.5474498     0.8276915    -0.1700911
N           3.9608386     0.0149981     0.7546298
H           3.7403036    -0.9601288     0.5988423
C           3.7982730     0.7766013     1.9048360
H           3.3390069     0.3729997     2.7940121
18
064_C5H8N4O_0-2-3-5 (75,) energy =    -489.5840927
N           4.9806159     0.4109768    -1.4253728
H           5.6869741     0.9946487    -1.8556346
C           4.7198737    -0.7659540    -2.0945346
N           3.6417831    -1.5306127    -1.5638446
H           3.7371999    -2.4490113    -1.9933633
C           2.2908163    -1.0015172    -1.8623979
H           2.1506945    -0.0380792    -1.3669162
H           1.5493822    -1.6998713    -1.4649340
H           2.1181247    -0.8743573    -2.9392785
O           5.3958608    -1.1359778    -3.0399750
C           4.3727680     2.0189820     1.6087649
H           4.4571150     2.8901161     2.2437017
N           4.8660868     2.0314986     0.3175887
C           4.5939485     0.8331504    -0.1514658
N           3.9486342     0.0473409     0.7547559
H           3.6865855    -0.9144631     0.5777900
C           3.8004925     0.8111401     1.9046142
H           3.3049260     0.4267964     2.7827743
18
064_C5H8N4O_0-2-3-5 (90,) energy =    -489.5821474
N           4.9982294     0.4183515    -1.3791151
H           5.6722689     1.0256713    -1.8290242
C           4.6594279    -0.7053391    -2.0929022
N           3.6221779    -1.5028166    -1.4952183
H           3.7925114    -2.4408855    -1.8571496
C           2.2681678    -1.0946916    -1.9452612
H           2.0381413    -0.0994696    -1.5547748
H           1.5381474    -1.7987905    -1.5369667
H           2.1771656    -1.0769778    -3.0392491
O           5.2287930    -1.0169851    -3.1248594
C           4.4673439     2.0107347     1.6751447
H           4.6061010     2.8627478     2.3262503
N           4.9850553     2.0053347     0.3936992
C           4.6289633     0.8385514    -0.0989421
N           3.9081480     0.0913222     0.7799676
H           3.5831423    -0.8455163     0.5716974
C           3.7994295     0.8450510     1.9400829
H           3.2641508     0.4842747     2.8048390
18
064_C5H8N4O_0-2-3-5 (105,) energy =    -489.5801172
N           4.9904582     0.4529915    -1.3472613
H           5.6595237     1.0606983    -1.8052075
C           4.5826613    -0.6247769    -2.0883228
N           3.5706163    -1.4434864    -1.4489142
H           3.8385671    -2.3985174    -1.6906315
C           2.2403322    -1.2078637    -2.0650877
H           1.9014385    -0.1981027    -1.8149122
H           1.5285741    -1.9221384    -1.6425960
H           2.2595818    -1.3159162    -3.1570052
O           5.0572237    -0.8827913    -3.1807446
C           4.5907757     2.0042700     1.7471065
H           4.7970546     2.8265171     2.4182831
N           5.1107531     1.9856132     0.4669843
C           4.6615827     0.8627369    -0.0516131
N           3.8820408     0.1563940     0.8083296
H           3.4752204    -0.7395797     0.5636024
C           3.8304524     0.8897935     1.9843963
H           3.2672641     0.5529788     2.8410663
18
064_C5H8N4O_0-2-3-5 (120,) energy =    -489.5846277
N           4.9230618     0.3835290    -1.2092345
H           5.7808103     0.8014958    -1.5462277
C           4.4170848    -0.5653078    -2.1267121
N           3.3289450    -1.3140292    -1.7167318
H           3.1278298    -1.1780394    -0.7240654
C           2.1125481    -1.1935073    -2.5275939
H           1.6145047    -0.2225939    -2.3911761
H           1.4164490    -1.9890455    -2.2477965
H           2.3720139    -1.3137212    -3.5812911
O           4.9081824    -0.5989936    -3.2439235
C           3.6379535     0.5832108     2.0494519
H           2.9612888     0.2510222     2.8238881
N           3.6396866    -0.0183703     0.8026672
C           4.5692708     0.6105573     0.1125951
N           5.1740892     1.5868940     0.8546882
H           5.8850076     2.2313973     0.5414424
C           4.5728237     1.5746391     2.1112401
H           4.8771656     2.2517728     2.8939083
18
064_C5H8N4O_0-2-3-5 (135,) energy =    -489.5900746
N           4.9020828     0.4221277    -1.2062534
H           5.7573714     0.8294371    -1.5598953
C           4.3370566    -0.4774105    -2.1397014
N           3.2559551    -1.2055983    -1.7088617
H           3.0056468    -1.0236492    -0.7355262
C           2.1078734    -1.3167838    -2.6065490
H           1.4985780    -0.4017143    -2.6134109
H           1.4810507    -2.1555024    -2.2907556
H           2.4668846    -1.5089609    -3.6189565
O           4.8009714    -0.4997987    -3.2708650
C           3.6360200     0.6437828     2.0564454
H           2.9300406     0.3517343     2.8208312
N           3.5855077     0.0818453     0.7921583
C           4.5698711     0.6444494     0.1199413
N           5.2581639     1.5401797     0.8903761
H           6.0333815     2.1176460     0.5999682
C           4.6552790     1.5454836     2.1467107
H           5.0160098     2.1713270     2.9478723
18
064_C5H8N4O_0-2-3-5 (150,) energy =    -489.5942093
N           4.9145691     0.4258816    -1.2227131
H           5.7640069     0.8203332    -1.6021086
C           4.2746380    -0.4201888    -2.1583642
N           3.1891334    -1.1076715    -1.6981296
H           2.9153430    -0.8876420    -0.7397093
C           2.1213490    -1.4452949    -2.6296291
H           1.4159493    -0.6135438    -2.7664950
H           1.5721704    -2.3151645    -2.2576417
H           2.5643020    -1.6915630    -3.5955752
O           4.7114564    -0.4543734    -3.3017804
C           3.6805477     0.7195629     2.0447729
H           2.9542302     0.4797735     2.8082998
N           3.5792996     0.1794152     0.7739045
C           4.6060265     0.6655260     0.1042554
N           5.3682550     1.4920536     0.8823880
H           6.1960911     1.9955716     0.5999304
C           4.7713669     1.5321981     2.1413258
H           5.1844786     2.1173374     2.9479071
18
064_C5H8N4O_0-2-3-5 (165,) energy =    -489.5965452
N           4.9059921     0.4577181    -1.2111906
H           5.7506291     0.8546611    -1.5973769
C           4.2128159    -0.3190924    -2.1697814
N           3.1023836    -0.9559007    -1.7164540
H           2.8105972    -0.7484364    -0.7616643
C           2.1402322    -1.5060884    -2.6545769
H           1.3634591    -0.7770630    -2.9244031
H           1.6588571    -2.3850275    -2.2150662
H           2.6681679    -1.8028255    -3.5618906
O           4.6510715    -0.3598053    -3.3136551
C           3.6695806     0.7499667     2.0544089
H           2.9249263     0.5363448     2.8080114
N           3.5415614     0.2521093     0.7686831
C           4.6013236     0.6904525     0.1165927
N           5.4084016     1.4474037     0.9200746
H           6.2725668     1.8977703     0.6575488
C           4.8077795     1.4906408     2.1773579
H           5.2501854     2.0296064     3.0004003
18
064_C5H8N4O_0-2-3-5 (180,) energy =    -489.5971818
N           4.9581466     0.4771656    -1.1554335
H           5.8425288     0.8351218    -1.4862870
C           4.2738210    -0.2316718    -2.1721607
N           3.0754940    -0.7507864    -1.8124775
H           2.7631977    -0.6006782    -0.8538965
C           2.2648381    -1.5007345    -2.7509357
H           1.2770350    -1.0396084    -2.8717960
H           2.1274484    -2.5368591    -2.4172474
H           2.7761106    -1.5038467    -3.7144538
O           4.8017863    -0.3191066    -3.2757544
C           3.5570383     0.7656303     2.0429661
H           2.7621351     0.5740021     2.7497061
N           3.4753519     0.3038463     0.7400645
C           4.5892855     0.7036575     0.1564427
N           5.3857949     1.4031048     1.0203763
H           6.2897322     1.8042955     0.8192916
C           4.7217641     1.4449815     2.2454551
H           5.1424142     1.9457282     3.1033112
