23
081_C11H9NO2_10-11-18-19 (-165,) energy =    -629.7784867
C           0.8755264     0.9369042     1.1637833
O           1.7469660     1.8069891     1.7307031
C          -0.4976666     1.1917869     1.2932329
H          -0.7858439     2.0932508     1.8251626
C          -1.4495149     0.3254974     0.7647712
H           2.5334976     1.8460137     1.1313022
C          -1.0481081    -0.8196544     0.0726185
H          -2.5056669     0.5498579     0.8863579
C           0.3109928    -1.0896198    -0.0647748
H          -1.7815706    -1.4990104    -0.3509969
C           1.2662679    -0.2279082     0.4749859
O           2.5845065    -0.7076507     0.3969280
C           5.8774679     1.2882085    -0.9695862
H           0.6604594    -1.9813592    -0.5762760
H           6.7345260     1.8437167    -1.3345398
C           4.7060790     1.9444935    -0.6270100
H           4.6224206     3.0256441    -0.7055322
N           3.6082000     1.3098762    -0.1719230
C           3.6532047    -0.0147540    -0.0535692
C           4.7983425    -0.7752421    -0.3515569
H           4.7728384    -1.8511059    -0.2222780
C           5.9179237    -0.1057155    -0.8157697
H           6.8184623    -0.6611892    -1.0624818
23
081_C11H9NO2_10-11-18-19 (-150,) energy =    -629.7785914
C           0.8531760     0.9697539     1.1836504
O           1.6791673     1.8719279     1.7650053
C          -0.5282450     1.2111747     1.2191192
H          -0.8605150     2.1274113     1.6973995
C          -1.4344939     0.3120934     0.6650858
H           2.5223812     1.8642502     1.2462530
C          -0.9795722    -0.8535218     0.0438776
H          -2.4986361     0.5268902     0.7118809
C           0.3889801    -1.1108847     0.0028910
H          -1.6784019    -1.5578397    -0.3971721
C           1.2972264    -0.2156864     0.5660517
O           2.6307920    -0.6642328     0.5990853
C           5.8465372     1.2640251    -1.0297078
H           0.7794820    -2.0180569    -0.4482881
H           6.6853459     1.8067181    -1.4519901
C           4.7426854     1.9453669    -0.5388807
H           4.6951345     3.0313271    -0.5597615
N           3.6734508     1.3272369    -0.0049461
C           3.6751394    -0.0025548     0.0467455
C           4.7446008    -0.7875590    -0.4144792
H           4.6835773    -1.8673073    -0.3423280
C           5.8418692    -0.1357681    -0.9553332
H           6.6859709    -0.7101899    -1.3267467
23
081_C11H9NO2_10-11-18-19 (-135,) energy =    -629.7779927
C           0.8328642     1.0089961     1.1953110
O           1.6130255     1.9470253     1.7805900
C          -0.5509766     1.2324098     1.1391290
H          -0.9238251     2.1627572     1.5564093
C          -1.4103284     0.2968865     0.5703241
H           2.5081410     1.8928606     1.3621047
C          -0.9056492    -0.8884591     0.0300673
H          -2.4778216     0.4983047     0.5432060
C           0.4661553    -1.1292530     0.0823052
H          -1.5692693    -1.6209324    -0.4193846
C           1.3254958    -0.1963661     0.6582653
O           2.6684268    -0.5997712     0.7945629
C           5.8112731     1.2455991    -1.0643274
H           0.8936038    -2.0502722    -0.3026921
H           6.6342779     1.7713529    -1.5364494
C           4.8005196     1.9508712    -0.4243444
H           4.8124864     3.0371090    -0.3801018
N           3.7593176     1.3539086     0.1793802
C           3.6912425     0.0245150     0.1536016
C           4.6557171    -0.7810367    -0.4676180
H           4.5389183    -1.8585509    -0.4571285
C           5.7322631    -0.1521670    -1.0781487
H           6.4989097    -0.7429359    -1.5717818
23
081_C11H9NO2_10-11-18-19 (-120,) energy =    -629.7769324
C           0.8243535     1.0428038     1.1820804
O           1.5651384     2.0185923     1.7558535
C          -0.5561199     1.2467880     1.0413690
H          -0.9616566     2.1918921     1.3892486
C          -1.3725500     0.2714313     0.4751428
H           2.5015239     1.9169789     1.4560989
C          -0.8290027    -0.9348041     0.0266942
H          -2.4388712     0.4576915     0.3794421
C           0.5407999    -1.1558786     0.1650770
H          -1.4610846    -1.6978894    -0.4172789
C           1.3560978    -0.1829506     0.7363555
O           2.7018636    -0.5309100     0.9660168
C           5.7763387     1.2247413    -1.0909926
H           0.9969621    -2.0909129    -0.1464274
H           6.5859970     1.7310365    -1.6058047
C           4.8848374     1.9444088    -0.3032234
H           4.9787039     3.0214436    -0.1880149
N           3.8691700     1.3710114     0.3604583
C           3.7054466     0.0538322     0.2493806
C           4.5382207    -0.7608197    -0.5255471
H           4.3469216    -1.8264112    -0.5784335
C           5.5943074    -0.1576322    -1.1989643
H           6.2639136    -0.7562573    -1.8102537
23
081_C11H9NO2_10-11-18-19 (-105,) energy =    -629.7756752
C           0.8349617     1.0787192     1.1393504
O           1.5492163     2.0916293     1.6816155
C          -0.5367515     1.2687815     0.9207791
H          -0.9615185     2.2320578     1.1860854
C          -1.3221441     0.2527698     0.3816647
H           2.5109636     1.9338760     1.5274004
C          -0.7572351    -0.9795293     0.0440225
H          -2.3829796     0.4267665     0.2228239
C           0.6055778    -1.1848313     0.2600686
H          -1.3676863    -1.7738683    -0.3746856
C           1.3896826    -0.1705501     0.8002650
O           2.7321468    -0.4601951     1.1082027
C           5.7540241     1.2081755    -1.0989482
H           1.0767338    -2.1369900     0.0343611
H           6.5560071     1.6943320    -1.6444892
C           5.0057405     1.9205769    -0.1667865
H           5.2045528     2.9714884     0.0288402
N           4.0071037     1.3712441     0.5404530
C           3.7213239     0.0869341     0.3332207
C           4.3986420    -0.7140229    -0.5901142
H           4.1114100    -1.7518338    -0.7144265
C           5.4383693    -0.1364799    -1.3122098
H           5.9929455    -0.7257779    -2.0371666
23
081_C11H9NO2_10-11-18-19 (-90,) energy =    -629.7743836
C           0.8428566     1.0917344     1.0784992
O           1.5391914     2.1425726     1.5720176
C          -0.5170765     1.2627023     0.7887224
H          -0.9552242     2.2408611     0.9616097
C          -1.2766224     0.2028530     0.2974486
H           2.5018248     1.9383369     1.5779375
C          -0.6976627    -1.0507734     0.0854110
H          -2.3300153     0.3585482     0.0808010
C           0.6560869    -1.2348391     0.3706283
H          -1.2911773    -1.8780688    -0.2916954
C           1.4143853    -0.1756015     0.8568092
O           2.7511295    -0.3968466     1.2269710
C           5.7251835     1.2072720    -1.0923772
H           1.1361907    -2.2003007     0.2400070
H           6.5215645     1.6770230    -1.6602122
C           5.1302947     1.8789255    -0.0281660
H           5.4442971     2.8827461     0.2478215
N           4.1447936     1.3483524     0.7114598
C           3.7275530     0.1212511     0.4083454
C           4.2385842    -0.6323269    -0.6509428
H           3.8446827    -1.6224034    -0.8504162
C           5.2623724    -0.0725530    -1.4095063
H           5.6935099    -0.6264597    -2.2387836
23
081_C11H9NO2_10-11-18-19 (-75,) energy =    -629.7731246
C           0.8457783     1.1036510     1.0057088
O           1.5350619     2.1876003     1.4387053
C          -0.5019805     1.2481507     0.6581233
H          -0.9505833     2.2333302     0.7400139
C          -1.2394505     0.1458428     0.2279426
H           2.4703780     1.9474586     1.6088275
C          -0.6504823    -1.1179845     0.1405361
H          -2.2855935     0.2762259    -0.0352586
C           0.6947985    -1.2729543     0.4814583
H          -1.2303144    -1.9761046    -0.1854285
C           1.4314460    -0.1710243     0.8992427
O           2.7606605    -0.3184061     1.3156116
C           5.7276211     1.1943343    -1.0737776
H           1.1816225    -2.2431719     0.4442130
H           6.5301861     1.6373879    -1.6543340
C           5.2887995     1.8016790     0.0993478
H           5.7332629     2.7308892     0.4484575
N           4.3007089     1.3031858     0.8583380
C           3.7334656     0.1662182     0.4668440
C           4.0754254    -0.5152590    -0.7038927
H           3.5573784    -1.4284474    -0.9741958
C           5.0985926     0.0154202    -1.4834111
H           5.4031334    -0.4846674    -2.3986105
23
081_C11H9NO2_10-11-18-19 (-60,) energy =    -629.7721284
C           0.8134480     1.1144269     0.9492205
O           1.4817409     2.2310143     1.3365762
C          -0.5258645     1.2089219     0.5611362
H          -1.0018830     2.1843989     0.5756937
C          -1.2229759     0.0626520     0.1783342
H           2.3769642     1.9825830     1.6396436
C          -0.6022506    -1.1888673     0.1840355
H          -2.2647300     0.1491697    -0.1179607
C           0.7380101    -1.2911693     0.5652391
H          -1.1539520    -2.0789748    -0.1025127
C           1.4354320    -0.1458674     0.9288903
O           2.7577609    -0.2064136     1.3765642
C           5.7610989     1.1462920    -1.0643807
H           1.2484581    -2.2493242     0.5969000
H           6.5813019     1.5423077    -1.6542618
C           5.4699742     1.6789506     0.1882975
H           6.0528983     2.5037703     0.5925339
N           4.4666848     1.2376899     0.9625554
C           3.7366191     0.2280365     0.5038786
C           3.9223032    -0.3729083    -0.7448110
H           3.2748402    -1.1804780    -1.0670571
C           4.9610036     0.1028976    -1.5383880
H           5.1465377    -0.3373931    -2.5142193
23
081_C11H9NO2_10-11-18-19 (-45,) energy =    -629.7718245
C           0.7356070     1.1498789     0.9153647
O           1.3500294     2.3064640     1.2779278
C          -0.6014049     1.1664814     0.5116657
H          -1.1277543     2.1155903     0.4925342
C          -1.2331677    -0.0260752     0.1568781
H           2.2243164     2.0835846     1.6486805
C          -0.5490088    -1.2429995     0.2102347
H          -2.2742478    -0.0033699    -0.1530196
C           0.7901271    -1.2655566     0.6087984
H          -1.0514370    -2.1687995    -0.0527746
C           1.4241826    -0.0740638     0.9396678
O           2.7412429    -0.0392309     1.4000778
C           5.8206128     1.0440444    -1.0816856
H           1.3477133    -2.1951907     0.6751856
H           6.6695249     1.3631479    -1.6775149
C           5.6561388     1.5052541     0.2216042
H           6.3731897     2.1953781     0.6618498
N           4.6268562     1.1559233     1.0070982
C           3.7343357     0.3128853     0.5048741
C           3.7881862    -0.2132488    -0.7908783
H           3.0196136    -0.8895761    -1.1464056
C           4.8580205     0.1698010    -1.5931434
H           4.9416273    -0.2149911    -2.6058729
23
081_C11H9NO2_10-11-18-19 (-30,) energy =    -629.7720437
C           0.6480362     1.1857641     0.9000170
O           1.1911643     2.3831285     1.2446608
C          -0.6857514     1.1112712     0.4922172
H          -1.2692280     2.0257097     0.4543014
C          -1.2400409    -0.1244432     0.1568774
H           2.0686305     2.2083795     1.6315883
C          -0.4811460    -1.2950645     0.2353048
H          -2.2790128    -0.1727234    -0.1570947
C           0.8542845    -1.2264079     0.6402838
H          -0.9233558    -2.2552577    -0.0119770
C           1.4117620     0.0088776     0.9500592
O           2.7194812     0.1382406     1.4177162
C           5.8784794     0.9408125    -1.0706091
H           1.4683154    -2.1181697     0.7249439
H           6.7543550     1.1811910    -1.6643192
C           5.8001130     1.3223180     0.2666001
H           6.6152919     1.8690888     0.7369703
N           4.7457867     1.0642887     1.0519991
C           3.7331364     0.3971654     0.5145077
C           3.6938206    -0.0412605    -0.8147816
H           2.8356111    -0.5780982    -1.2007283
C           4.7952301     0.2470668    -1.6146009
H           4.8072091    -0.0730002    -2.6529703
23
081_C11H9NO2_10-11-18-19 (-15,) energy =    -629.7724495
C           0.5526776     1.2330002     0.8911338
O           1.0129845     2.4678505     1.2236765
C          -0.7768584     1.0650903     0.4967145
H          -1.4230809     1.9363426     0.4593020
C          -1.2463019    -0.2072511     0.1709471
H           1.9086936     2.3537417     1.5900803
C          -0.4065959    -1.3219825     0.2460584
H          -2.2819565    -0.3291653    -0.1337227
C           0.9232971    -1.1600545     0.6410254
H          -0.7830232    -2.3115324     0.0057869
C           1.3966573     0.1128126     0.9413116
O           2.6926477     0.3372891     1.4040653
C           5.9303772     0.8183223    -1.0673508
H           1.5977799    -2.0073150     0.7223352
H           6.8306515     0.9697072    -1.6538373
C           5.9027192     1.1363618     0.2887558
H           6.7839636     1.5430849     0.7817298
N           4.8253413     0.9780815     1.0675915
C           3.7306151     0.4833642     0.5042854
C           3.6330316     0.1242499    -0.8462173
H           2.7124730    -0.2719422    -1.2565138
C           4.7642500     0.3041666    -1.6370956
H           4.7317369     0.0410580    -2.6909479
23
081_C11H9NO2_10-11-18-19 (0,) energy =    -629.7727632
C           0.4767138     1.2756122     0.8975468
O           0.8527930     2.5406430     1.2227166
C          -0.8458167     1.0129150     0.5317701
H          -1.5536270     1.8355148     0.5109757
C          -1.2289878    -0.2885637     0.2094164
H           1.7708952     2.4924385     1.5453722
C          -0.3082148    -1.3390589     0.2591989
H          -2.2593256    -0.4843764    -0.0739250
C           1.0138373    -1.0831030     0.6285332
H          -0.6163669    -2.3524267     0.0208813
C           1.4004643     0.2198478     0.9265333
O           2.6824258     0.5411240     1.3695311
C           5.9829955     0.6839136    -1.0602310
H           1.7484916    -1.8805375     0.6894652
H           6.9013804     0.7427854    -1.6350919
C           5.9803814     0.9515211     0.3071686
H           6.9002742     1.2261302     0.8205029
N           4.8846329     0.8966720     1.0738096
C           3.7424429     0.5649795     0.4855575
C           3.6141245     0.2773467    -0.8797745
H           2.6555272     0.0190447    -1.3121930
C           4.7676058     0.3432479    -1.6562235
H           4.7124842     0.1302739    -2.7204154
23
081_C11H9NO2_10-11-18-19 (15,) energy =    -629.7727596
C           0.3918734     1.3091740     0.8988335
O           0.6897260     2.5972833     1.2161415
C          -0.9189140     0.9553575     0.5699671
H          -1.6816075     1.7276111     0.5713454
C          -1.2197461    -0.3686363     0.2522775
H           1.6250738     2.6149079     1.4882110
C          -0.2260514    -1.3515582     0.2693543
H          -2.2413832    -0.6353447    -0.0031827
C           1.0846399    -1.0057196     0.6034572
H          -0.4686934    -2.3832152     0.0337287
C           1.3873585     0.3202083     0.8988138
O           2.6514888     0.7373672     1.3101009
C           6.0074927     0.5515444    -1.0370639
H           1.8732555    -1.7514517     0.6376637
H           6.9402928     0.5220158    -1.5906067
C           6.0040019     0.7721845     0.3384959
H           6.9368424     0.9214165     0.8794332
N           4.8914112     0.8160537     1.0820552
C           3.7337299     0.6389040     0.4595858
C           3.6046865     0.4212236    -0.9189668
H           2.6316199     0.2955371    -1.3778726
C           4.7752451     0.3767905    -1.6701565
H           4.7212191     0.2122911    -2.7429572
23
081_C11H9NO2_10-11-18-19 (30,) energy =    -629.7723856
C           0.3254137     1.3318352     0.8985789
O           0.5501502     2.6394483     1.1987083
C          -0.9702655     0.8935452     0.6178069
H          -1.7799154     1.6160189     0.6429671
C          -1.1971861    -0.4484691     0.3130005
H           1.4959883     2.7228160     1.4162014
C          -0.1411678    -1.3634325     0.2948711
H          -2.2077651    -0.7814527     0.0941008
C           1.1559844    -0.9336404     0.5820941
H          -0.3238608    -2.4094068     0.0682826
C           1.3828608     0.4094985     0.8674510
O           2.6273280     0.9190958     1.2298872
C           6.0204874     0.4277163    -1.0155255
H           1.9901182    -1.6287390     0.5873611
H           6.9612384     0.3162581    -1.5447353
C           5.9997364     0.5909825     0.3674405
H           6.9262474     0.6126902     0.9383985
N           4.8755891     0.7274865     1.0837442
C           3.7268898     0.7069072     0.4229842
C           3.6175502     0.5658418    -0.9674079
H           2.6489442     0.5714461    -1.4534344
C           4.7969259     0.4190777    -1.6898370
H           4.7593484     0.3082377    -2.7701669
23
081_C11H9NO2_10-11-18-19 (45,) energy =    -629.7718245
C           0.6640242     1.1813213     0.5771543
O           1.1882058     2.4346362     0.6102131
C          -0.3609736     0.8298582     1.4584607
H          -0.7199467     1.5737044     2.1627681
C          -0.9080235    -0.4529094     1.4091295
H           1.7893215     2.5335076    -0.1516228
C          -0.4517617    -1.3914110     0.4802238
H          -1.7069707    -0.7159661     2.0967953
C           0.5766806    -1.0473282    -0.4010028
H          -0.8925071    -2.3826914     0.4375560
C           1.1358998     0.2231327    -0.3349704
O           2.1244418     0.6441759    -1.2256694
C           6.0683049     0.7566314    -0.1083294
H           0.9456242    -1.7473464    -1.1449011
H           7.1200259     0.8484337     0.1425622
C           5.4144300     1.7704215    -0.8033169
H           5.9458321     2.6717930    -1.1022991
N           4.1164349     1.7223471    -1.1370132
C           3.4371966     0.6365247    -0.7918191
C           3.9814160    -0.4436131    -0.0876742
H           3.3690931    -1.2982161     0.1754544
C           5.3266963    -0.3694897     0.2581986
H           5.7922187    -1.1856428     0.8039631
23
081_C11H9NO2_10-11-18-19 (60,) energy =    -629.7721284
C           0.7154426     1.1770718     0.5009814
O           1.2728949     2.4147608     0.4726753
C          -0.3096699     0.9002031     1.4097080
H          -0.6349869     1.6896271     2.0800361
C          -0.8982226    -0.3645250     1.4321488
H           1.9189324     2.4611660    -0.2590874
C          -0.4822968    -1.3641749     0.5493464
H          -1.6965245    -0.5659241     2.1411481
C           0.5457458    -1.0972961    -0.3583890
H          -0.9532134    -2.3423497     0.5630219
C           1.1426563     0.1572885    -0.3668631
O           2.1308105     0.4904142    -1.2970306
C           6.0188260     0.8458511    -0.0459947
H           0.8841035    -1.8448530    -1.0699325
H           7.0507585     1.0033444     0.2503704
C           5.2808861     1.8806641    -0.6136986
H           5.7222676     2.8638522    -0.7622191
N           4.0008425     1.7510064    -0.9950827
C           3.4302797     0.5630567    -0.8337884
C           4.0643590    -0.5420810    -0.2580695
H           3.5319241    -1.4784885    -0.1361098
C           5.3882565    -0.3875545     0.1400149
H           5.9232934    -1.2207675     0.5872477
23
081_C11H9NO2_10-11-18-19 (75,) energy =    -629.7731246
C           0.7190960     1.1993800     0.4389700
O           1.2722800     2.4337947     0.3509507
C          -0.3253700     0.9844104     1.3450852
H          -0.6537653     1.8185843     1.9573250
C          -0.9250339    -0.2705576     1.4423614
H           2.0121082     2.4274317    -0.2925087
C          -0.4991150    -1.3302830     0.6377792
H          -1.7365597    -0.4184602     2.1496410
C           0.5448124    -1.1279392    -0.2673721
H          -0.9748588    -2.3036310     0.7091088
C           1.1489785     0.1205521    -0.3550464
O           2.1470659     0.3642936    -1.3070549
C           5.9981048     0.8785344    -0.0009784
H           0.8900867    -1.9225539    -0.9224128
H           7.0154256     1.0789310     0.3189489
C           5.1699414     1.9203682    -0.4088739
H           5.5222611     2.9493069    -0.4054160
N           3.9037470     1.7357687    -0.8133069
C           3.4364306     0.4912247    -0.8347733
C           4.1684641    -0.6256786    -0.4241346
H           3.7182132    -1.6115943    -0.4484906
C           5.4784727    -0.4188802    -0.0031157
H           6.0877146    -1.2591282     0.3181779
23
081_C11H9NO2_10-11-18-19 (90,) energy =    -629.7743836
C           0.6841254     1.2241823     0.3791062
O           1.2141827     2.4604341     0.2260582
C          -0.3931247     1.0588623     1.2593254
H          -0.7518859     1.9326241     1.7945785
C          -0.9818220    -0.1920498     1.4330723
H           2.0526824     2.4084675    -0.2864039
C          -0.5106074    -1.3051432     0.7325533
H          -1.8170170    -0.2962462     2.1203865
C           0.5615950    -1.1540966    -0.1480375
H          -0.9734824    -2.2785125     0.8636583
C           1.1513000     0.0936378    -0.3177141
O           2.1677519     0.2519780    -1.2740483
C           6.0053507     0.8803853     0.0203519
H           0.9412589    -1.9910162    -0.7269169
H           7.0146536     1.1093781     0.3462282
C           5.0908538     1.9048472    -0.2070968
H           5.3655954     2.9460980    -0.0563054
N           3.8316677     1.6833195    -0.6134785
C           3.4511643     0.4229812    -0.8097156
C           4.2792759    -0.6804042    -0.5908628
H           3.9016399    -1.6825092    -0.7593150
C           5.5841329    -0.4380740    -0.1718950
H           6.2642922    -1.2668226     0.0040378
23
081_C11H9NO2_10-11-18-19 (105,) energy =    -629.7756754
C           0.6434118     1.2355778     0.3268251
O           1.1621507     2.4663131     0.1109963
C          -0.4734766     1.1174529     1.1659499
H          -0.8636504     2.0244359     1.6174472
C          -1.0577886    -0.1234355     1.4079918
H           2.0749366     2.3783324    -0.2533078
C          -0.5397385    -1.2799272     0.8199473
H          -1.9229355    -0.1865032     2.0625399
C           0.5685659    -1.1773721    -0.0210341
H          -0.9944197    -2.2483182     1.0054762
C           1.1509609     0.0623810    -0.2642969
O           2.1925958     0.1343774    -1.2081698
C           6.0284995     0.8833205     0.0216273
H           0.9847415    -2.0494840    -0.5167773
H           7.0340362     1.1389367     0.3389644
C           5.0356999     1.8574667    -0.0204233
H           5.2446024     2.8853147     0.2660903
N           3.7779432     1.6011118    -0.4097018
C           3.4710916     0.3550300    -0.7663575
C           4.3865939    -0.7005040    -0.7443464
H           4.0695327    -1.6936959    -1.0410867
C           5.6907278    -0.4216118    -0.3474971
H           6.4343716    -1.2132253    -0.3205738
23
081_C11H9NO2_10-11-18-19 (120,) energy =    -629.7769318
C           0.6248187     1.2334273     0.2865675
O           1.1533101     2.4485645     0.0138589
C          -0.5295034     1.1700122     1.0806108
H          -0.9351488     2.1060791     1.4519941
C          -1.1293883    -0.0502324     1.3801292
H           2.1099142     2.3306008    -0.2051830
C          -0.5855585    -1.2432800     0.8980325
H          -2.0234270    -0.0685824     1.9976122
C           0.5583475    -1.1976229     0.1018379
H          -1.0482108    -2.1976983     1.1302921
C           1.1541936     0.0230800    -0.2019825
O           2.2234716     0.0025916    -1.1191144
C           6.0583817     0.8947734     0.0046677
H           0.9949537    -2.1010384    -0.3136635
H           7.0616490     1.1811596     0.3018895
C           5.0032752     1.7905812     0.1374651
H           5.1593936     2.7885834     0.5396146
N           3.7438277     1.4934617    -0.2179413
C           3.4958442     0.2814186    -0.7115238
C           4.4822202    -0.6970795    -0.8763259
H           4.2126559    -1.6665264    -1.2792701
C           5.7854648    -0.3742923    -0.5156483
H           6.5798197    -1.1067724    -0.6291636
23
081_C11H9NO2_10-11-18-19 (135,) energy =    -629.7779921
C           0.6169198     1.2087178     0.2540488
O           1.1702437     2.4022781    -0.0633088
C          -0.5738165     1.2001849     0.9955098
H          -0.9833783     2.1603538     1.2938661
C          -1.2036831     0.0060751     1.3343854
H           2.1461224     2.2630077    -0.1490720
C          -0.6520110    -1.2180377     0.9486985
H          -2.1260503     0.0323778     1.9082964
C           0.5279150    -1.2274548     0.2067734
H          -1.1352360    -2.1536102     1.2135424
C           1.1544100    -0.0323913    -0.1390669
O           2.2544849    -0.1441476    -1.0120647
C           6.0743067     0.9312027    -0.0175350
H           0.9735064    -2.1570737    -0.1344994
H           7.0729651     1.2568129     0.2532208
C           4.9727081     1.7252488     0.2734591
H           5.0853483     2.6845573     0.7725300
N           3.7140756     1.3755870    -0.0402615
C           3.5160256     0.2088705    -0.6503625
C           4.5567139    -0.6684130    -0.9854458
H           4.3275941    -1.6066935    -1.4773266
C           5.8535353    -0.2899320    -0.6658223
H           6.6864181    -0.9442568    -0.9078701
23
081_C11H9NO2_10-11-18-19 (150,) energy =    -629.7785911
C           0.6350851     1.1713806     0.2353420
O           1.2278057     2.3385292    -0.1116677
C          -0.5933992     1.2228804     0.9107385
H          -0.9949658     2.2055859     1.1380631
C          -1.2692489     0.0616258     1.2729042
H           2.2052286     2.1850970    -0.0763943
C          -0.7238125    -1.1906434     0.9798469
H          -2.2206540     0.1355071     1.7926196
C           0.4935588    -1.2609375     0.3061779
H          -1.2404288    -2.1023173     1.2642374
C           1.1664170    -0.0979580    -0.0655676
O           2.2992739    -0.3010819    -0.8755758
C           6.0954875     0.9740439    -0.0518099
H           0.9366284    -2.2153438     0.0380939
H           7.0891583     1.3418518     0.1801135
C           4.9711269     1.6635282     0.3771763
H           5.0589214     2.5856276     0.9463985
N           3.7147722     1.2558432     0.1206956
C           3.5458548     0.1321592    -0.5720108
C           4.6151589    -0.6366013    -1.0601548
H           4.4095185    -1.5419015    -1.6195601
C           5.9033775    -0.1995669    -0.7937934
H           6.7554240    -0.7711272    -1.1512067
23
081_C11H9NO2_10-11-18-19 (165,) energy =    -629.7784861
C           0.6574831     1.1363690     0.2275661
O           1.2919087     2.2753103    -0.1430981
C          -0.6024940     1.2452750     0.8344768
H          -0.9905462     2.2465040     0.9946291
C          -1.3251296     0.1184133     1.2133430
H           2.2587620     2.1157867    -0.0039093
C          -0.7946076    -1.1576057     1.0084295
H          -2.3004157     0.2376130     1.6771981
C           0.4541237    -1.2843061     0.4055728
H          -1.3457744    -2.0440717     1.3073659
C           1.1752792    -0.1559820     0.0140490
O           2.3385615    -0.4415570    -0.7209425
C           6.0967147     1.0349201    -0.0944129
H           0.8889971    -2.2595166     0.2087358
H           7.0828814     1.4455500     0.0932009
C           4.9711487     1.6201822     0.4631478
H           5.0487404     2.5054914     1.0894451
N           3.7218532     1.1542869     0.2699058
C           3.5660590     0.0730693    -0.4900479
C           4.6374864    -0.5836712    -1.1217970
H           4.4409979    -1.4535986    -1.7377968
C           5.9140381    -0.0893594    -0.9134608
H           6.7664591    -0.5752358    -1.3800289
23
081_C11H9NO2_10-11-18-19 (180,) energy =    -629.7775220
C           0.6956691     1.0925579     0.2413691
O           1.3762212     2.2063100    -0.1297469
C          -0.5973176     1.2508577     0.7616126
H          -0.9669544     2.2667712     0.8614282
C          -1.3729922     0.1568499     1.1305518
H           2.3244887     2.0459168     0.1005211
C          -0.8614359    -1.1369397     1.0038472
H          -2.3728412     0.3152596     1.5250362
C           0.4200901    -1.3137468     0.4906586
H          -1.4522174    -1.9998848     1.2958716
C           1.1947091    -0.2177674     0.1054642
O           2.3934192    -0.5744964    -0.5293622
C           6.1029261     1.0908471    -0.1485517
H           0.8431894    -2.3050109     0.3594911
H           7.0798100     1.5436404    -0.0184151
C           5.0002316     1.5889110     0.5261667
H           5.0849801     2.4479361     1.1872784
N           3.7621432     1.0677952     0.4118280
C           3.5983496     0.0162659    -0.3878804
C           4.6427505    -0.5447056    -1.1464213
H           4.4363271    -1.3869194    -1.7967175
C           5.9068311     0.0030642    -1.0132805
H           6.7384004    -0.4085765    -1.5784736
