23
081_C11H9NO2_0-10-11-18 (-165,) energy =    -629.7733819
C           0.0370913     0.7475751    -0.6201286
O           0.0979292     1.1440769    -1.9228523
C          -1.2055058     0.5745320    -0.0140130
H          -2.0978239     0.7588867    -0.6038816
C          -1.2765435     0.1767098     1.3212749
H           1.0398493     1.2122855    -2.1547500
C          -0.1094292    -0.0455782     2.0514387
H          -2.2478894     0.0413395     1.7885615
C           1.1445361     0.1242139     1.4560535
H          -0.1631043    -0.3543091     3.0912166
C           1.2117992     0.5105543     0.1198383
O           2.3579212     0.7999831    -0.6234033
C           6.2393296    -0.2729879     0.0789984
H           2.0532266    -0.0606572     2.0094202
H           7.2591120    -0.5829932     0.2815804
C           5.1817603    -0.7962458     0.8118755
H           5.3579449    -1.5251774     1.6004467
N           3.8961409    -0.4590390     0.6132159
C           3.6395014     0.4266897    -0.3363152
C           4.6242663     1.0283358    -1.1386417
H           4.3399101     1.7509006    -1.8957023
C           5.9435727     0.6636662    -0.9197922
H           6.7358707     1.1044816    -1.5184282
23
081_C11H9NO2_0-10-11-18 (-150,) energy =    -629.7740874
C           0.0596943     0.6368512    -0.6541259
O           0.1057049     0.8953837    -1.9915500
C          -1.1691702     0.3927045    -0.0410503
H          -2.0653603     0.4113725    -0.6531299
C          -1.2212355     0.1356919     1.3285455
H           1.0393070     1.0471906    -2.2186965
C          -0.0515709     0.1268572     2.0905450
H          -2.1807051    -0.0566531     1.8003811
C           1.1838487     0.3735421     1.4870120
H          -0.0930380    -0.0696399     3.1576826
C           1.2338816     0.6120965     0.1170144
O           2.3716833     0.9722022    -0.6095383
C           6.1739105    -0.3915646     0.0274735
H           2.0969956     0.3616735     2.0670925
H           7.1692084    -0.7838482     0.2083426
C           5.0629759    -0.9765924     0.6241280
H           5.1727959    -1.8372634     1.2810879
N           3.8045789    -0.5442345     0.4418663
C           3.6314139     0.5019158    -0.3494886
C           4.6723422     1.1807865    -1.0023007
H           4.4519496     2.0360646    -1.6315962
C           5.9639977     0.7147574    -0.8047827
H           6.8005797     1.2089363    -1.2909902
23
081_C11H9NO2_0-10-11-18 (-135,) energy =    -629.7746298
C           0.1135581     0.5710290    -0.6501844
O           0.1836226     0.7444227    -1.9997696
C          -1.1063787     0.2370955    -0.0590241
H          -1.9762636     0.1183427    -0.6972487
C          -1.1822496     0.0651125     1.3222621
H           1.1020959     0.9913551    -2.2050875
C          -0.0480480     0.2314682     2.1209674
H          -2.1337056    -0.1975815     1.7761805
C           1.1737915     0.5705516     1.5376431
H          -0.1102661     0.1006642     3.1970460
C           1.2493777     0.7261619     0.1579222
O           2.3885085     1.1618574    -0.5266829
C           6.1023059    -0.4851320    -0.0463548
H           2.0637672     0.7007902     2.1419968
H           7.0710765    -0.9532093     0.0936652
C           4.9569228    -1.0551280     0.4982120
H           5.0117233    -1.9783556     1.0719320
N           3.7281869    -0.5309858     0.3623000
C           3.6215974     0.5919152    -0.3282287
C           4.7013961     1.2646985    -0.9199807
H           4.5338772     2.1866121    -1.4660057
C           5.9621474     0.7042175    -0.7718193
H           6.8283068     1.1891996    -1.2135840
23
081_C11H9NO2_0-10-11-18 (-120,) energy =    -629.7747248
C           0.7473232     0.6169766     1.7883226
O           1.4422420     1.0603100     2.8726939
C          -0.6226549     0.8716812     1.6909181
H          -1.1056953     1.4280142     2.4879890
C          -1.3341968     0.4122427     0.5839188
H           2.3565058     0.7431514     2.7711449
C          -0.6928987    -0.3086115    -0.4274457
H          -2.3990637     0.6159209     0.5135254
C           0.6741883    -0.5709132    -0.3325020
H          -1.2521531    -0.6671655    -1.2862272
C           1.3824499    -0.1017374     0.7671932
O           2.7332555    -0.3973308     0.9870158
C           5.6799357     0.9353589    -1.5206402
H           1.1954056    -1.1275444    -1.1042731
H           6.4363890     1.3136918    -2.2002727
C           4.3546913     1.3379648    -1.6435171
H           4.0538751     2.0380834    -2.4205892
N           3.3697235     0.9108917    -0.8369435
C           3.6976584     0.0589723     0.1194596
C           4.9954883    -0.4247863     0.3423084
H           5.1827824    -1.1293102     1.1452712
C           5.9995555     0.0316258    -0.4999668
H           7.0208197    -0.3145164    -0.3663296
23
081_C11H9NO2_0-10-11-18 (-105,) energy =    -629.7744986
C           0.8155342     0.6741889     1.6836907
O           1.5664281     1.1988790     2.6914594
C          -0.5391210     1.0012991     1.5884280
H          -0.9630510     1.6780048     2.3236288
C          -1.3114535     0.4584292     0.5626258
H           2.4495419     0.7962210     2.6280737
C          -0.7479370    -0.4182354    -0.3687770
H          -2.3640593     0.7188732     0.4944900
C           0.6040692    -0.7504911    -0.2746122
H          -1.3549974    -0.8415674    -1.1631843
C           1.3726989    -0.2010365     0.7434449
O           2.7139243    -0.5600471     0.9338307
C           5.6615257     1.0505342    -1.4057862
H           1.0705834    -1.4284539    -0.9825736
H           6.4174423     1.5031230    -2.0390870
C           4.3361052     1.4641109    -1.4804045
H           4.0345280     2.2476110    -2.1729466
N           3.3523024     0.9478910    -0.7260370
C           3.6820891    -0.0065371     0.1272405
C           4.9802813    -0.5113895     0.2935582
H           5.1689919    -1.3017628     1.0118312
C           5.9826159     0.0376192    -0.4938597
H           7.0042497    -0.3207792    -0.4017708
23
081_C11H9NO2_0-10-11-18 (-90,) energy =    -629.7755634
C           0.8098488     0.9381286     1.3839023
O           1.5520389     1.8525711     2.0589316
C          -0.5725935     1.1200219     1.2660832
H          -1.0178330     1.9888042     1.7409462
C          -1.3428129     0.2112674     0.5420422
H           2.4467287     1.8524753     1.6517391
C          -0.7491157    -0.8855298    -0.0878205
H          -2.4146550     0.3694373     0.4589227
C           0.6259766    -1.0872948     0.0412251
H          -1.3499556    -1.5884787    -0.6569686
C           1.3921947    -0.1822678     0.7677464
O           2.7289663    -0.5102127     1.0609186
C           5.7415888     1.1718968    -1.1341864
H           1.1134517    -1.9551198    -0.3935475
H           6.5278711     1.6667656    -1.6944671
C           4.7316239     1.9141772    -0.5295167
H           4.7153432     2.9991661    -0.6020585
N           3.7376140     1.3585293     0.1795353
C           3.7162570     0.0300579     0.2872300
C           4.6836544    -0.8114701    -0.2689715
H           4.6097273    -1.8841732    -0.1313291
C           5.7142655    -0.2186421    -0.9908924
H           6.4858204    -0.8349765    -1.4439856
23
081_C11H9NO2_0-10-11-18 (-75,) energy =    -629.7780092
C           0.8476292     0.9200829     1.2890839
O           1.6440052     1.8275137     1.9055921
C          -0.5361825     1.1391453     1.2589796
H          -0.9132832     2.0387575     1.7354920
C          -1.3910042     0.2348067     0.6336338
H           2.4994645     1.8344649     1.4126027
C          -0.8794722    -0.9051565     0.0088043
H          -2.4603908     0.4276296     0.6253530
C           0.4942033    -1.1422739     0.0403744
H          -1.5407975    -1.6098483    -0.4862028
C           1.3473852    -0.2413375     0.6721831
O           2.6867431    -0.6472379     0.8250681
C           5.8095908     1.2299772    -1.0295512
H           0.9240430    -2.0363058    -0.4014941
H           6.6230760     1.7658610    -1.5067360
C           4.7174311     1.9185509    -0.5182412
H           4.6574693     3.0025701    -0.5781691
N           3.6818705     1.3100423     0.0847101
C           3.7033282    -0.0180957     0.1802876
C           4.7609299    -0.8085873    -0.2905435
H           4.7181050    -1.8853813    -0.1740053
C           5.8276602    -0.1644980    -0.9018132
H           6.6641324    -0.7423686    -1.2850103
23
081_C11H9NO2_0-10-11-18 (-60,) energy =    -629.7786401
C           0.8639815     0.9081405     1.2043522
O           1.6922587     1.8142273     1.7772368
C          -0.5185693     1.1377371     1.2664273
H          -0.8491299     2.0491526     1.7550006
C          -1.4280901     0.2339695     0.7261226
H           2.5166836     1.8303367     1.2292317
C          -0.9748809    -0.9248678     0.0911025
H          -2.4928520     0.4396345     0.7942122
C           0.3943020    -1.1705397     0.0221157
H          -1.6758488    -1.6330674    -0.3402021
C           1.3064056    -0.2706304     0.5727246
O           2.6402426    -0.7167809     0.5714688
C           5.8782085     1.2703105    -0.9354768
H           0.7836634    -2.0715965    -0.4421176
H           6.7213843     1.8260235    -1.3312232
C           4.7313393     1.9303155    -0.5220594
H           4.6534899     3.0133390    -0.5768042
N           3.6530863     1.2954343    -0.0250759
C           3.6911341    -0.0314819     0.0662801
C           4.8086459    -0.7959255    -0.3113611
H           4.7770786    -1.8743384    -0.2072444
C           5.9115701    -0.1265917    -0.8160646
H           6.7913718    -0.6849902    -1.1235480
23
081_C11H9NO2_0-10-11-18 (-45,) energy =    -629.7780785
C           0.8549053     0.9216060     1.1142797
O           1.6870111     1.8570638     1.6267155
C          -0.5262519     1.1321706     1.2602039
H          -0.8310758     2.0540761     1.7458447
C          -1.4610014     0.2059590     0.8126940
H           2.5076662     1.8561654     1.0683027
C          -1.0349783    -0.9675052     0.1852451
H          -2.5208395     0.4030996     0.9485247
C           0.3283002    -1.1952125     0.0276201
H          -1.7522410    -1.6981067    -0.1760661
C           1.2701476    -0.2718037     0.4876299
O           2.5939716    -0.7236480     0.3473200
C           5.9487535     1.2834192    -0.8410362
H           0.6979465    -2.1010881    -0.4430864
H           6.8239342     1.8392289    -1.1593708
C           4.7855353     1.9448759    -0.4835981
H           4.7235500     3.0299904    -0.5057971
N           3.6663111     1.3091633    -0.0850937
C           3.6800535    -0.0200390    -0.0310019
C           4.8141427    -0.7867097    -0.3602776
H           4.7627791    -1.8672836    -0.2936710
C           5.9554309    -0.1180193    -0.7672210
H           6.8470390    -0.6793233    -1.0324253
23
081_C11H9NO2_0-10-11-18 (-30,) energy =    -629.7769628
C           0.8276825     0.9581374     1.0159485
O           1.6429910     1.9426670     1.4526761
C          -0.5503303     1.1295710     1.2388158
H          -0.8519570     2.0600935     1.7098473
C          -1.4829305     0.1628532     0.8865830
H           2.4784141     1.9092301     0.9137679
C          -1.0606815    -1.0224258     0.2788346
H          -2.5374771     0.3361788     1.0823707
C           0.2957246    -1.2125705     0.0431286
H          -1.7743575    -1.7881877    -0.0092196
C           1.2404218    -0.2475804     0.4075433
O           2.5518343    -0.6821775     0.1458752
C           6.0192160     1.2839090    -0.7486586
H           0.6636732    -2.1220621    -0.4217957
H           6.9257093     1.8269321    -0.9925440
C           4.8599647     1.9621873    -0.4123134
H           4.8306683     3.0482921    -0.3782121
N           3.7031487     1.3424140    -0.1065485
C           3.6729610     0.0126088    -0.1204084
C           4.8005324    -0.7709660    -0.4378925
H           4.7149612    -1.8513708    -0.4312418
C           5.9793492    -0.1193018    -0.7527568
H           6.8659249    -0.6947814    -1.0040547
23
081_C11H9NO2_0-10-11-18 (-15,) energy =    -629.7758824
C           0.7895667     1.0179826     0.9048810
O           1.5634137     2.0745163     1.2251322
C          -0.5826844     1.1438435     1.1944619
H          -0.8976473     2.0904349     1.6228769
C          -1.4915460     0.1228314     0.9565012
H           2.4464708     1.9764814     0.7736089
C          -1.0524003    -1.0827341     0.4027238
H          -2.5401798     0.2685524     1.2005088
C           0.2956458    -1.2312665     0.1037425
H          -1.7455768    -1.8944308     0.2047090
C           1.2199774    -0.2087228     0.3492017
O           2.5188492    -0.6200394    -0.0054767
C           6.0940022     1.2519459    -0.6406514
H           0.6771035    -2.1523609    -0.3260368
H           7.0314340     1.7694044    -0.8122667
C           4.9593817     1.9527981    -0.2690795
H           4.9789134     3.0315661    -0.1371797
N           3.7680007     1.3643550    -0.0479721
C           3.6727647     0.0449356    -0.1834578
C           4.7709461    -0.7595362    -0.5513172
H           4.6346922    -1.8304629    -0.6467369
C           5.9867435    -0.1409583    -0.7790967
H           6.8509568    -0.7342559    -1.0645218
23
081_C11H9NO2_0-10-11-18 (0,) energy =    -629.7753978
C           0.7388546     1.0738815     0.7432168
O           1.4572194     2.2042136     0.8834168
C          -0.6221859     1.1652877     1.0959348
H          -0.9605205     2.1357459     1.4459867
C          -1.4920388     0.0886525     1.0072679
H           2.4011420     2.0344486     0.6091616
C          -1.0230123    -1.1467452     0.5524403
H          -2.5330015     0.2135491     1.2922483
C           0.3141479    -1.2647211     0.1980636
H          -1.6840307    -2.0042972     0.4742164
C           1.1992101    -0.1825778     0.2846142
O           2.4867049    -0.5739834    -0.1337021
C           6.1428217     1.2074964    -0.5209554
H           0.7183944    -2.2065137    -0.1599261
H           7.1046033     1.6992229    -0.6164505
C           5.0378360     1.9040108    -0.0623866
H           5.1036187     2.9536937     0.2120709
N           3.8203293     1.3453184     0.0761408
C           3.6635442     0.0637269    -0.2405356
C           4.7267122    -0.7317480    -0.7164254
H           4.5418554    -1.7715762    -0.9595167
C           5.9716440    -0.1455874    -0.8539529
H           6.8095049    -0.7335039    -1.2182047
23
081_C11H9NO2_0-10-11-18 (15,) energy =    -629.7758826
C           0.7121969     1.1013819     0.5647809
O           1.3977097     2.2608395     0.5047557
C          -0.6291510     1.1941475     0.9830760
H          -0.9815404     2.1868829     1.2458756
C          -1.4659453     0.0897232     1.0554428
H           2.3708473     2.0573500     0.4355985
C          -0.9790177    -1.1741159     0.7111794
H          -2.4946665     0.2147471     1.3818168
C           0.3416986    -1.2934567     0.2986593
H          -1.6138707    -2.0532197     0.7632471
C           1.1894045    -0.1823681     0.2143157
O           2.4577274    -0.5619414    -0.2645268
C           6.1582687     1.1637485    -0.3873458
H           0.7577968    -2.2569258     0.0208411
H           7.1338762     1.6369756    -0.4016147
C           5.0664728     1.8174189     0.1580328
H           5.1563772     2.8153534     0.5794501
N           3.8334131     1.2776161     0.2087025
C           3.6476181     0.0614947    -0.2963749
C           4.6926018    -0.6834611    -0.8805983
H           4.4825145    -1.6700168    -1.2769717
C           5.9542879    -0.1184204    -0.9214050
H           6.7797623    -0.6683563    -1.3647069
23
081_C11H9NO2_0-10-11-18 (30,) energy =    -629.7769628
C           0.6906927     1.1047346     0.4369054
O           1.3557671     2.2634121     0.2371253
C          -0.6208838     1.2035095     0.9348827
H          -0.9800153     2.2038354     1.1564593
C          -1.4249430     0.0880224     1.1286144
H           2.3301505     2.0674845     0.2778256
C          -0.9300429    -1.1855910     0.8361671
H          -2.4342971     0.2123660     1.5109569
C           0.3653259    -1.3092899     0.3480351
H          -1.5406263    -2.0707273     0.9859075
C           1.1748917    -0.1879636     0.1390165
O           2.4116643    -0.5409375    -0.4292592
C           6.1390637     1.1220552    -0.2597322
H           0.7839468    -2.2808214     0.1039113
H           7.1211773     1.5771842    -0.1935138
C           5.0365463     1.7397744     0.3058971
H           5.1251995     2.6926350     0.8215047
N           3.7941904     1.2197947     0.2613648
C           3.6141940     0.0591480    -0.3631450
C           4.6677637    -0.6439989    -0.9810097
H           4.4590084    -1.5852180    -1.4761500
C           5.9375909    -0.0984406    -0.9233790
H           6.7715369    -0.6169921    -1.3881260
23
081_C11H9NO2_0-10-11-18 (45,) energy =    -629.7780792
C           0.6717847     1.1252722     0.3299935
O           1.3143159     2.2794048     0.0371015
C          -0.6056223     1.2208598     0.9063203
H          -0.9764307     2.2204701     1.1111491
C          -1.3652923     0.0935986     1.1963109
H           2.2869386     2.1011275     0.1220782
C          -0.8559872    -1.1792701     0.9270180
H          -2.3514985     0.2088629     1.6375198
C           0.4083812    -1.2976860     0.3590567
H          -1.4339443    -2.0699201     1.1539220
C           1.1684315    -0.1658742     0.0548855
O           2.3635286    -0.4739552    -0.6180614
C           6.1172187     1.0722575    -0.1565009
H           0.8323352    -2.2691523     0.1236864
H           7.1038484     1.4992398    -0.0134755
C           4.9996122     1.6822840     0.3886886
H           5.0821789     2.6017746     0.9627338
N           3.7503367     1.1968972     0.2495105
C           3.5826339     0.0765325    -0.4479393
C           4.6494285    -0.6139013    -1.0543038
H           4.4472489    -1.5207238    -1.6124467
C           5.9259108    -0.1015185    -0.9016013
H           6.7723467    -0.6115395    -1.3530310
23
081_C11H9NO2_0-10-11-18 (60,) energy =    -629.7786399
C           0.6370345     1.1570057     0.2536999
O           1.2469014     2.3158068    -0.0935260
C          -0.6037904     1.2268178     0.9044272
H          -0.9984704     2.2159425     1.1153783
C          -1.3000573     0.0765948     1.2625122
H           2.2211178     2.1572840    -0.0160899
C          -0.7627221    -1.1839755     0.9908991
H          -2.2607946     0.1654327     1.7622511
C           0.4671045    -1.2722564     0.3431952
H          -1.2943457    -2.0878570     1.2725359
C           1.1610882    -0.1202383    -0.0258616
O           2.3063887    -0.3535978    -0.8081661
C           6.0893990     1.0024290    -0.0640526
H           0.9058133    -2.2336273     0.0935998
H           7.0804864     1.3870005     0.1509507
C           4.9631570     1.6432994     0.4285731
H           5.0456409     2.5445898     1.0309605
N           3.7086319     1.2126044     0.1975129
C           3.5458119     0.1136238    -0.5347556
C           4.6180766    -0.6034691    -1.0931956
H           4.4169692    -1.4892033    -1.6846699
C           5.9021252    -0.1439136    -0.8498995
H           6.7558050    -0.6758554    -1.2606009
23
081_C11H9NO2_0-10-11-18 (75,) energy =    -629.7780092
C           0.5907921     1.2023988     0.1986734
O           1.1531457     2.3797230    -0.1697645
C          -0.6129838     1.2196527     0.9156682
H          -1.0458726     2.1875232     1.1489719
C          -1.2241542     0.0342192     1.3168907
H           2.1310566     2.2444124    -0.1514623
C          -0.6369455    -1.1988429     1.0230862
H          -2.1580418     0.0750455     1.8709701
C           0.5552946    -1.2318495     0.3006664
H          -1.1058513    -2.1256555     1.3395472
C           1.1619893    -0.0465096    -0.1063213
O           2.2517927    -0.1698031    -0.9887570
C           6.0644467     0.9104656     0.0186208
H           1.0213844    -2.1720639     0.0213336
H           7.0608847     1.2347416     0.2990091
C           4.9485629     1.6290566     0.4269778
H           5.0489987     2.5304415     1.0267197
N           3.6909977     1.2772446     0.1089235
C           3.5122809     0.1776807    -0.6208663
C           4.5677771    -0.6135416    -1.0950802
H           4.3522206    -1.4930170    -1.6908609
C           5.8609303    -0.2312120    -0.7664563
H           6.7059018    -0.8213258    -1.1102847
23
081_C11H9NO2_0-10-11-18 (90,) energy =    -629.7755636
C           0.5166538     1.2644480     0.1544827
O           1.0071718     2.4704741    -0.2294339
C          -0.6533885     1.2047516     0.9197349
H          -1.1501636     2.1369869     1.1700923
C          -1.1475298    -0.0237031     1.3556898
H           1.9829111     2.3740877    -0.2997351
C          -0.4795417    -1.2120972     1.0496206
H          -2.0561517    -0.0506633     1.9510362
C           0.6766902    -1.1642694     0.2691928
H          -0.8624625    -2.1674220     1.3958004
C           1.1663868     0.0614471    -0.1689279
O           2.2036299     0.0749942    -1.1198576
C           6.0391597     0.8039867     0.0970141
H           1.1946464    -2.0710479    -0.0294817
H           7.0415208     1.0489590     0.4321341
C           4.9652542     1.6264236     0.4241696
H           5.1111064     2.5285092     1.0138330
N           3.7061261     1.3778178     0.0339536
C           3.4822855     0.2777854    -0.6849179
C           4.4855775    -0.6117748    -1.0791267
H           4.2324654    -1.4817457    -1.6742587
C           5.7875655    -0.3331470    -0.6765859
H           6.5983382    -0.9997845    -0.9571329
23
081_C11H9NO2_0-10-11-18 (105,) energy =    -629.7744988
C           0.3641007     1.1827322    -0.2079893
O           0.6752778     2.2143095    -1.0409811
C          -0.7730953     1.2644126     0.5990618
H          -1.3840472     2.1600885     0.5473351
C          -1.0977078     0.2056893     1.4459446
H           1.4464354     1.9354483    -1.5639876
C          -0.3026126    -0.9429317     1.4912324
H          -1.9830515     0.2773573     2.0716236
C           0.8320126    -1.0297882     0.6836194
H          -0.5624652    -1.7663195     2.1495038
C           1.1574428     0.0303236    -0.1526300
O           2.2385793    -0.0337821    -1.0421039
C           6.0688712     0.5556192     0.2763824
H           1.4693013    -1.9085264     0.6961802
H           7.0700541     0.7246879     0.6589729
C           4.9596464     0.7242087     1.0976762
H           5.0758706     1.0287843     2.1360208
N           3.6950075     0.5330270     0.6882915
C           3.5157226     0.1623919    -0.5679965
C           4.5507137    -0.0435600    -1.4922638
H           4.3217193    -0.3545960    -2.5056981
C           5.8498361     0.1620002    -1.0494320
H           6.6854219     0.0146252    -1.7282042
23
081_C11H9NO2_0-10-11-18 (120,) energy =    -629.7747248
C           0.2517437     1.1766943    -0.2865320
O           0.4701015     2.1692572    -1.1934220
C          -0.9069589     1.1925697     0.4934402
H          -1.6114059     2.0076530     0.3609584
C          -1.1326757     0.1731564     1.4168414
H           1.2961990     1.9500641    -1.6584989
C          -0.2151432    -0.8707538     1.5656238
H          -2.0348847     0.1930141     2.0218252
C           0.9410859    -0.8947059     0.7850434
H          -0.3970197    -1.6642685     2.2840163
C           1.1681445     0.1291742    -0.1266585
O           2.2529335     0.1354966    -1.0118544
C           6.1201213     0.4020355     0.3000879
H           1.6690664    -1.6933307     0.8818772
H           7.1324004     0.4842767     0.6819046
C           5.0301488     0.5385793     1.1525998
H           5.1726528     0.7305496     2.2143616
N           3.7530806     0.4499564     0.7471922
C           3.5408181     0.2172920    -0.5368773
C           4.5541590     0.0561966    -1.4935558
H           4.2981715    -0.1399505    -2.5290161
C           5.8670090     0.1549618    -1.0547376
H           6.6861910     0.0377012    -1.7589004
23
081_C11H9NO2_0-10-11-18 (135,) energy =    -629.7746291
C           0.1651720     1.1689255    -0.3535309
O           0.3167484     2.1151202    -1.3220791
C          -1.0197092     1.1165326     0.3831120
H          -1.7966233     1.8425630     0.1654739
C          -1.1795631     0.1454713     1.3704718
H           1.1895993     1.9678697    -1.7260355
C          -0.1648603    -0.7809751     1.6235667
H          -2.1027380     0.1117396     1.9422857
C           1.0204717    -0.7385417     0.8878135
H          -0.2925191    -1.5389281     2.3904508
C           1.1822759     0.2410750    -0.0856151
O           2.2775994     0.3206265    -0.9515740
C           6.1734650     0.2611574     0.2955477
H           1.8184465    -1.4478470     1.0733404
H           7.1954905     0.2565767     0.6597861
C           5.1075891     0.3690895     1.1818749
H           5.2793935     0.4515126     2.2534114
N           3.8203963     0.3830344     0.7997426
C           3.5718818     0.2841529    -0.4954614
C           4.5589406     0.1642163    -1.4854496
H           4.2745859     0.0804870    -2.5286444
C           5.8829730     0.1564194    -1.0701545
H           6.6817444     0.0665791    -1.8012381
23
081_C11H9NO2_0-10-11-18 (150,) energy =    -629.7740874
C           0.1188395     1.1555779    -0.4139532
O           0.2358094     2.0468480    -1.4384589
C          -1.0956810     1.0375888     0.2617705
H          -1.9229522     1.6686649    -0.0472779
C          -1.2218154     0.1211970     1.3052607
H           1.1435068     1.9688636    -1.7794277
C          -0.1415828    -0.6826059     1.6738200
H          -2.1691668     0.0354755     1.8300326
C           1.0780634    -0.5747672     1.0013639
H          -0.2413942    -1.3987101     2.4839716
C           1.2055616     0.3531984    -0.0276771
O           2.3201188     0.5082842    -0.8558593
C           6.2337207     0.1316600     0.2686652
H           1.9235740    -1.1877143     1.2839893
H           7.2632540     0.0428144     0.5994017
C           5.1972850     0.2069181     1.1920127
H           5.4010930     0.1788815     2.2606967
N           3.9029083     0.3203110     0.8522354
C           3.6157334     0.3558428    -0.4388537
C           4.5717095     0.2818780    -1.4641345
H           4.2581320     0.3111554    -2.5018712
C           5.9033574     0.1704134    -1.0914874
H           6.6774840     0.1110949    -1.8515462
23
081_C11H9NO2_0-10-11-18 (165,) energy =    -629.7733819
C           0.0732678     1.0663889    -0.4624924
O           0.1775602     1.8457073    -1.5759503
C          -1.1667337     0.9162283     0.1549322
H          -2.0214160     1.4322892    -0.2709348
C          -1.2836640     0.1139227     1.2902451
H           1.1085731     1.8177648    -1.8553724
C          -0.1654994    -0.5396769     1.8071818
H          -2.2523805     0.0017305     1.7689887
C           1.0852672    -0.3980885     1.1978567
H          -0.2551452    -1.1653437     2.6902666
C           1.2006533     0.4124084     0.0713424
O           2.3373818     0.6190727    -0.7128178
C           6.2702834    -0.0002285     0.2138445
H           1.9593369    -0.8880870     1.6003668
H           7.3070589    -0.1605310     0.4904277
C           5.2634479    -0.0766289     1.1676803
H           5.4972215    -0.2980581     2.2071737
N           3.9610230     0.1125297     0.8958331
C           3.6344706     0.3824655    -0.3581571
C           4.5620424     0.4803013    -1.4095888
H           4.2206330     0.7002213    -2.4151605
C           5.9006201     0.2854178    -1.1068117
H           6.6505263     0.3528148    -1.8900852
23
081_C11H9NO2_0-10-11-18 (180,) energy =    -629.7730963
C           0.0480362     0.9043283    -0.5466155
O           0.1407731     1.4997736    -1.7692334
C          -1.2032907     0.7509162     0.0449951
H          -2.0749234     1.1134084    -0.4907518
C          -1.3099148     0.1431707     1.2966511
H           1.0832318     1.5110684    -2.0077926
C          -0.1683229    -0.3103102     1.9550465
H          -2.2885542     0.0261159     1.7536055
C           1.0963792    -0.1640327     1.3744624
H          -0.2485918    -0.7837181     2.9291755
C           1.1995331     0.4433172     0.1247071
O           2.3514933     0.6856822    -0.6255204
C           6.2807253    -0.1355872     0.1454528
H           1.9874296    -0.5111437     1.8743156
H           7.3160316    -0.3648993     0.3747676
C           5.2692486    -0.4632596     1.0378295
H           5.4970560    -0.9550492     1.9813977
N           3.9673244    -0.2090774     0.8187739
C           3.6455127     0.3887007    -0.3179049
C           4.5818654     0.7676225    -1.2971587
H           4.2481568     1.2545594    -2.2069124
C           5.9179421     0.4965269    -1.0514848
H           6.6720985     0.7734348    -1.7828677
