19
250_C8H8ClNO_18-0-1-9 (-165,) energy =    -899.8541550
C           1.1216899    -0.7694234    -0.7388267
N           2.1779318     0.1050045    -0.9959694
H           2.1571812     0.4001878    -1.9670317
C           5.9168271     0.6419596     0.9124042
H           6.8807870     0.7831534     1.3914560
C           4.7442809     0.6135151     1.6673664
H           4.7833401     0.7457527     2.7446500
C           3.5101196     0.4452023     1.0446671
H           2.6000644     0.4788378     1.6320934
C           3.4148460     0.2620020    -0.3443141
C           4.6112368     0.3080082    -1.0873072
Cl          4.5606729     0.1266635    -2.8383551
C           5.8457984     0.5004833    -0.4726269
H           6.7419990     0.5289814    -1.0832240
C           1.0754308    -1.4946076     0.5915042
H           0.6934637    -0.8324884     1.3771820
H           2.0563573    -1.8610983     0.9069236
H           0.3825739    -2.3301980     0.4828671
O           0.2636416    -0.9228518    -1.5923412
19
250_C8H8ClNO_18-0-1-9 (-150,) energy =    -899.8525948
C           1.5347921    -1.7828096     0.1582233
N           2.9054611    -1.6703497    -0.0632542
H           3.3619667    -2.5761038    -0.0103117
C           5.5213835     1.6353765     0.2769153
H           6.2031511     2.4767739     0.3531484
C           4.2823197     1.6629367     0.9161617
H           3.9914483     2.5249404     1.5093866
C           3.4168133     0.5751312     0.8259043
H           2.4796878     0.5882355     1.3702461
C           3.7516135    -0.5563374     0.0642630
C           5.0123010    -0.5658650    -0.5649818
Cl          5.5039632    -1.9730554    -1.5004700
C           5.8906358     0.5082152    -0.4564960
H           6.8529551     0.4568792    -0.9546103
C           0.6553757    -0.5830578    -0.1471432
H           0.2592360    -0.1621879     0.7835017
H          -0.1995908    -0.9503481    -0.7215275
H           1.1641094     0.2036776    -0.7075974
O           1.0684921    -2.8471030     0.5291006
19
250_C8H8ClNO_18-0-1-9 (-135,) energy =    -899.8500158
C           1.5377710    -1.7591238     0.2609285
N           2.8794076    -1.6685221    -0.1274547
H           3.3391077    -2.5705250    -0.0296826
C           5.5489012     1.5886626     0.2891871
H           6.2438093     2.4173368     0.3838109
C           4.3082272     1.6242601     0.9245234
H           4.0289617     2.4799765     1.5322615
C           3.4253941     0.5523787     0.8110318
H           2.4852592     0.5720050     1.3508238
C           3.7466224    -0.5706877     0.0317725
C           5.0074796    -0.5877037    -0.5961427
Cl          5.4777785    -1.9852853    -1.5561494
C           5.9024091     0.4698761    -0.4647801
H           6.8654068     0.4125828    -0.9609860
C           0.6188496    -0.6154386    -0.1295850
H           0.1503250    -0.1924154     0.7648665
H          -0.1845193    -1.0395539    -0.7408146
H           1.1179739     0.1753019    -0.6924493
O           1.1301246    -2.7558366     0.8303187
19
250_C8H8ClNO_18-0-1-9 (-120,) energy =    -899.8462943
C           1.5288710    -1.6951415     0.3634116
N           2.8306417    -1.6408713    -0.1770756
H           3.2863726    -2.5433977    -0.0537810
C           5.5834713     1.5432891     0.2924379
H           6.2982391     2.3534549     0.3986524
C           4.3442898     1.5993485     0.9289762
H           4.0856620     2.4527267     1.5490575
C           3.4356681     0.5507519     0.8002437
H           2.4958042     0.5863184     1.3407932
C           3.7308117    -0.5691964     0.0064994
C           4.9894242    -0.6065696    -0.6240777
Cl          5.4242729    -2.0018466    -1.6041688
C           5.9092908     0.4273670    -0.4783072
H           6.8703500     0.3540888    -0.9762287
C           0.5584790    -0.6352217    -0.1207926
H          -0.0372059    -0.2648942     0.7179807
H          -0.1309397    -1.1173420    -0.8242662
H           1.0473327     0.1942430    -0.6352422
O           1.2068052    -2.5870109     1.1243952
19
250_C8H8ClNO_18-0-1-9 (-105,) energy =    -899.8417686
C           1.5455914    -1.6363283     0.4314863
N           2.8008515    -1.5930800    -0.2428551
H           3.2547688    -2.4998240    -0.1355355
C           5.6258336     1.5173631     0.3128696
H           6.3572693     2.3097034     0.4380704
C           4.3806742     1.5919756     0.9355014
H           4.1328451     2.4426060     1.5638020
C           3.4499808     0.5662819     0.7813255
H           2.5046365     0.6182861     1.3114847
C           3.7300033    -0.5508918    -0.0218754
C           4.9946794    -0.6067959    -0.6386395
Cl          5.4096803    -1.9996354    -1.6320147
C           5.9350520     0.4046245    -0.4693917
H           6.8998571     0.3159759    -0.9575765
C           0.4950336    -0.6932349    -0.1131028
H          -0.2176037    -0.4309731     0.6719195
H          -0.0488140    -1.2175577    -0.9093166
H           0.9327307     0.2051684    -0.5551796
O           1.3466423    -2.4118139     1.3428259
19
250_C8H8ClNO_18-0-1-9 (-90,) energy =    -899.8371826
C           1.5281389    -1.5885254     0.4313482
N           2.7364263    -1.5142939    -0.3534521
H           3.1838473    -2.4308239    -0.3343563
C           5.6449343     1.4848227     0.3696581
H           6.3957456     2.2511706     0.5349912
C           4.3764855     1.5937624     0.9379902
H           4.1281875     2.4470584     1.5625841
C           3.4194102     0.6026711     0.7308265
H           2.4517591     0.6870574     1.2149729
C           3.6972998    -0.5188855    -0.0679583
C           4.9857435    -0.6089480    -0.6293917
Cl          5.3996081    -2.0067858    -1.6195625
C           5.9496379     0.3701772    -0.4114361
H           6.9309096     0.2534709    -0.8593289
C           0.3802863    -0.7826682    -0.1271620
H          -0.3963993    -0.6525589     0.6288459
H          -0.0399705    -1.3230016    -0.9849918
H           0.7233401     0.1860444    -0.5034026
O           1.4642739    -2.2611339     1.4351277
19
250_C8H8ClNO_18-0-1-9 (-75,) energy =    -899.8431643
C           1.3518929    -1.1429931     0.5257608
N           2.7166201    -1.4757066     0.2687170
H           2.7973962    -1.9892081    -0.6056606
C           5.7175140     1.5144482     0.3979657
H           6.4919567     2.2745751     0.4308896
C           4.7182126     1.4698064     1.3724822
H           4.7092375     2.1978306     2.1785607
C           3.7352625     0.4862115     1.3349951
H           2.9715157     0.4288633     2.1023716
C           3.7102886    -0.4673537     0.3031647
C           4.7266539    -0.4082832    -0.6657631
Cl          4.7537312    -1.5845278    -1.9868259
C           5.7217550     0.5656475    -0.6221243
H           6.4868528     0.5747063    -1.3912212
C           0.4324431    -1.2669902    -0.6749391
H          -0.6020247    -1.1249981    -0.3589293
H           0.5348229    -2.2549360    -1.1416495
H           0.6933891    -0.5197163    -1.4338839
O           0.9504280    -0.9107814     1.6455211
19
250_C8H8ClNO_18-0-1-9 (-60,) energy =    -899.8495032
C           1.3305507    -1.0546706     0.4486563
N           2.6757065    -1.3517549     0.1356202
H           2.7551080    -1.8491060    -0.7465608
C           5.8051729     1.4846020     0.4600855
H           6.6130441     2.2056410     0.5385970
C           4.7782234     1.4561808     1.4053122
H           4.7805278     2.1580659     2.2343081
C           3.7503557     0.5228869     1.3107683
H           2.9615584     0.4797436     2.0518194
C           3.7105052    -0.3940120     0.2469096
C           4.7568167    -0.3542870    -0.6915310
Cl          4.7689252    -1.4890504    -2.0489855
C           5.7937860     0.5696858    -0.5906849
H           6.5796295     0.5666641    -1.3385688
C           0.3445784    -1.3955738    -0.6554687
H          -0.6714515    -1.3148475    -0.2671188
H           0.5089383    -2.4140955    -1.0285476
H           0.4672990    -0.7107190    -1.5031855
O           0.9824049    -0.6868017     1.5534020
19
250_C8H8ClNO_18-0-1-9 (-45,) energy =    -899.8549433
C           1.2821984    -0.9866118     0.3675703
N           2.6135916    -1.2402785     0.0136479
H           2.7015557    -1.7488436    -0.8595020
C           5.8523491     1.4344782     0.5336054
H           6.6894182     2.1143693     0.6594449
C           4.7916318     1.4330860     1.4404391
H           4.7958652     2.1147078     2.2861821
C           3.7231263     0.5541275     1.2871234
H           2.9043452     0.5364248     1.9943453
C           3.6798888    -0.3353103     0.2000484
C           4.7615571    -0.3232677    -0.6997534
Cl          4.7719201    -1.4271716    -2.0829044
C           5.8363654     0.5466060    -0.5404022
H           6.6478013     0.5232633    -1.2600291
C           0.2699634    -1.5104999    -0.6384315
H          -0.7178927    -1.5185143    -0.1762685
H           0.5224406    -2.5235238    -0.9735737
H           0.2463003    -0.8637050    -1.5240283
O           0.9578766    -0.4910155     1.4316134
19
250_C8H8ClNO_18-0-1-9 (-30,) energy =    -899.8588138
C           1.2496267    -0.9566371     0.3129288
N           2.5622705    -1.1326321    -0.1136138
H           2.6583206    -1.6555288    -0.9758499
C           5.8881059     1.3870260     0.5828795
H           6.7496154     2.0261077     0.7507703
C           4.7927899     1.4223440     1.4461804
H           4.7938949     2.0932948     2.3004371
C           3.6899974     0.5979913     1.2384741
H           2.8422564     0.6144952     1.9094111
C           3.6510936    -0.2775392     0.1395017
C           4.7684719    -0.3022950    -0.7170617
Cl          4.7861321    -1.3897088    -2.1136663
C           5.8739656     0.5151137    -0.5043746
H           6.7112132     0.4634766    -1.1922133
C           0.2226429    -1.6273113    -0.5869877
H          -0.7047224    -1.7543427    -0.0268544
H           0.5655812    -2.6026779    -0.9502629
H           0.0209851    -0.9951644    -1.4605084
O           0.9431817    -0.3798442     1.3428480
19
250_C8H8ClNO_18-0-1-9 (-15,) energy =    -899.8609984
C           1.1987137    -0.9453716     0.2504702
N           2.4858389    -1.0279681    -0.2531778
H           2.5976687    -1.5832336    -1.0914748
C           5.8904426     1.3232732     0.6158966
H           6.7734321     1.9190034     0.8262505
C           4.7587093     1.4115516     1.4264466
H           4.7523940     2.0815436     2.2814463
C           3.6253042     0.6463428     1.1634378
H           2.7474863     0.7083221     1.7909079
C           3.5964575    -0.2287091     0.0632802
C           4.7505899    -0.3056398    -0.7411241
Cl          4.7813101    -1.3922925    -2.1383448
C           5.8836639     0.4557404    -0.4750455
H           6.7483137     0.3637795    -1.1236445
C           0.1761185    -1.7351678    -0.5537258
H          -0.6197997    -2.0598873     0.1188449
H           0.6056188    -2.6072729    -1.0579240
H          -0.2683298    -1.0843847    -1.3165086
O           0.8935216    -0.3167785     1.2516990
19
250_C8H8ClNO_18-0-1-9 (0,) energy =    -899.8616273
C           1.1917332    -0.9116276     0.2288909
N           2.4364884    -0.8748814    -0.3710944
H           2.5572599    -1.4498899    -1.1942197
C           5.9256290     1.2716020     0.6718703
H           6.8306825     1.8151216     0.9254268
C           4.7685805     1.4113837     1.4380838
H           4.7641046     2.0707528     2.3013203
C           3.6051519     0.7165101     1.1170452
H           2.7067301     0.8215873     1.7083428
C           3.5744898    -0.1459824     0.0068351
C           4.7536489    -0.2734274    -0.7541273
Cl          4.7819599    -1.3426498    -2.1649355
C           5.9145456     0.4215641    -0.4327508
H           6.7978987     0.2912262    -1.0487309
C           0.1882268    -1.7959958    -0.4981201
H          -0.5203583    -2.1877879     0.2339446
H           0.6536889    -2.6287163    -1.0355854
H          -0.3728451    -1.1916212    -1.2209181
O           0.8915424    -0.2782926     1.2292815
19
250_C8H8ClNO_18-0-1-9 (15,) energy =    -899.8609988
C           1.1879450    -0.8864553     0.2426816
N           2.3477297    -0.6608723    -0.4792523
H           2.4508965    -1.1991108    -1.3296812
C           5.9287874     1.2641316     0.6807856
H           6.8557790     1.7535509     0.9635778
C           4.7905195     1.3724274     1.4796708
H           4.8226848     1.9524275     2.3975616
C           3.5980272     0.7501841     1.1189854
H           2.7124560     0.8347286     1.7327806
C           3.5205150    -0.0117103    -0.0601718
C           4.6801472    -0.1061065    -0.8547266
Cl          4.6477008    -1.0456642    -2.3547886
C           5.8694446     0.5193266    -0.4959004
H           6.7370674     0.4168974    -1.1389283
C           0.2576440    -1.9059387    -0.3987595
H          -0.7691291    -1.6654223    -0.1174533
H           0.4906685    -2.9055177    -0.0122379
H           0.3389943    -1.9351500    -1.4904552
O           0.9106533    -0.3207695     1.2885531
19
250_C8H8ClNO_18-0-1-9 (30,) energy =    -899.8588138
C           1.2014691    -0.8063533     0.2412519
N           2.3085390    -0.4828219    -0.5369993
H           2.4229960    -1.0551388    -1.3649194
C           5.9698497     1.2216677     0.7217746
H           6.9158388     1.6554357     1.0312282
C           4.8163613     1.4034481     1.4851046
H           4.8554710     1.9860957     2.4010320
C           3.5998417     0.8555858     1.0866337
H           2.7007618     1.0008721     1.6694209
C           3.5135027     0.0901202    -0.0891284
C           4.6875048    -0.0772861    -0.8484339
Cl          4.6438264    -1.0222217    -2.3445869
C           5.9010280     0.4775586    -0.4547100
H           6.7801567     0.3201272    -1.0704376
C           0.3595852    -1.9335055    -0.3376356
H          -0.6358777    -1.8913588     0.1064013
H           0.8121225    -2.9023055    -0.0927889
H           0.2752602    -1.8682780    -1.4283017
O           0.8881143    -0.2073468     1.2563038
19
250_C8H8ClNO_18-0-1-9 (45,) energy =    -899.8549433
C           1.1938440    -0.7379038     0.2270807
N           2.2524228    -0.3275720    -0.5934413
H           2.3712547    -0.9160110    -1.4109897
C           5.9817569     1.1525297     0.7539949
H           6.9429083     1.5302235     1.0891176
C           4.8227404     1.3957908     1.4922187
H           4.8725499     1.9705594     2.4125816
C           3.5878412     0.9221574     1.0580854
H           2.6824712     1.1194983     1.6168699
C           3.4870553     0.1675084    -0.1230365
C           4.6656436    -0.0616950    -0.8566502
Cl          4.6033298    -0.9954188    -2.3586801
C           5.8990009     0.4220333    -0.4298935
H           6.7824684     0.2191314    -1.0258394
C           0.4728763    -1.9779189    -0.2765916
H          -0.4783217    -2.0729875     0.2484825
H           1.0787329    -2.8721922    -0.0858095
H           0.2882413    -1.9258468    -1.3561659
O           0.8143358    -0.1020692     1.1938667
19
250_C8H8ClNO_18-0-1-9 (60,) energy =    -899.8495032
C           1.1708469    -0.6314110     0.1861520
N           2.2048566    -0.1707278    -0.6590049
H           2.3255076    -0.7733524    -1.4678270
C           5.9942084     1.0567385     0.7824863
H           6.9687075     1.3714973     1.1430354
C           4.8355524     1.3546994     1.5019463
H           4.8996210     1.9101552     2.4332070
C           3.5859699     0.9620519     1.0319893
H           2.6802927     1.2080394     1.5727836
C           3.4663106     0.2343981    -0.1639577
C           4.6436772    -0.0506330    -0.8778081
Cl          4.5586407    -0.9553680    -2.3959452
C           5.8937416     0.3537648    -0.4162858
H           6.7765641     0.1101497    -0.9978061
C           0.5951564    -1.9794208    -0.2124682
H          -0.3092192    -2.1691854     0.3669656
H           1.3236264    -2.7774225    -0.0247578
H           0.3505488    -2.0017161    -1.2817009
O           0.6951094     0.0536241     1.0701185
19
250_C8H8ClNO_18-0-1-9 (75,) energy =    -899.8431643
C           1.1176429    -0.5373909     0.1358484
N           2.1303765    -0.0123468    -0.7231912
H           2.2414482    -0.6043416    -1.5429169
C           5.9603995     0.9548308     0.8125780
H           6.9432505     1.2064675     1.1989989
C           4.8057013     1.2945384     1.5207792
H           4.8815881     1.8196358     2.4686063
C           3.5474404     0.9826985     1.0162101
H           2.6456663     1.2662292     1.5471323
C           3.4104894     0.2970626    -0.2026960
C           4.5840231    -0.0325098    -0.9023459
Cl          4.4778856    -0.8904943    -2.4457480
C           5.8450810     0.2925285    -0.4076193
H           6.7246258     0.0182534    -0.9804550
C           0.7356077    -1.9792854    -0.1424190
H          -0.1282740    -2.2519926     0.4654352
H           1.5747338    -2.6471149     0.0864469
H           0.4888815    -2.1175972    -1.2027646
O           0.5270527     0.1622463     0.9299958
19
250_C8H8ClNO_18-0-1-9 (90,) energy =    -899.8371826
C           1.0704266    -0.4378327    -0.3399367
N           2.3413034    -0.5203253    -1.0177621
H           2.2381541    -0.0929768    -1.9382569
C           5.8976263     0.9012873     0.8011910
H           6.8191190     1.2518795     1.2553693
C           4.7438674     0.7331731     1.5656578
H           4.7531589     0.9609155     2.6276985
C           3.5609526     0.2922529     0.9761886
H           2.6640237     0.2064715     1.5811907
C           3.5024375    -0.0122627    -0.3938533
C           4.6791203     0.1676147    -1.1464939
Cl          4.6582155    -0.1740676    -2.8752183
C           5.8578413     0.6235020    -0.5650590
H           6.7371706     0.7533450    -1.1871867
C           0.7454768    -1.6432529     0.5087532
H          -0.0699735    -1.4147199     1.1976148
H           1.6280733    -1.9933064     1.0529341
H           0.4378463    -2.4627911    -0.1531896
O           0.3412556     0.5184388    -0.4737605
19
250_C8H8ClNO_18-0-1-9 (105,) energy =    -899.8417686
C           1.0606479    -0.4191756    -0.3862614
N           2.3156716    -0.3787518    -1.0612177
H           2.1921971     0.1242894    -1.9395380
C           5.9180230     0.8371366     0.8119842
H           6.8507247     1.1388704     1.2783538
C           4.7471777     0.7335119     1.5616790
H           4.7542472     0.9651720     2.6228277
C           3.5499611     0.3575544     0.9555965
H           2.6389756     0.3283737     1.5444110
C           3.4968384     0.0494473    -0.4132966
C           4.6904969     0.1637637    -1.1515645
Cl          4.6740775    -0.1811061    -2.8777791
C           5.8831879     0.5601941    -0.5546998
H           6.7771258     0.6420482    -1.1639670
C           0.8764652    -1.5933876     0.5502091
H           0.1675430    -1.3362362     1.3402695
H           1.8224357    -1.9377598     0.9752814
H           0.4569424    -2.4251576    -0.0301357
O           0.2045740     0.4137793    -0.5979732
19
250_C8H8ClNO_18-0-1-9 (120,) energy =    -899.8462943
C           1.0416192    -0.4726974    -0.4579967
N           2.2931599    -0.2985593    -1.0848939
H           2.1677234     0.2179941    -1.9537349
C           5.9040818     0.7935960     0.8401599
H           6.8388374     1.0673660     1.3195608
C           4.7240408     0.7085223     1.5778321
H           4.7266820     0.9273417     2.6416718
C           3.5243477     0.3697035     0.9552094
H           2.6060258     0.3554188     1.5325167
C           3.4786635     0.0776199    -0.4173881
C           4.6814061     0.1734265    -1.1435841
Cl          4.6750468    -0.1499254    -2.8732870
C           5.8769548     0.5352313    -0.5302415
H           6.7788599     0.6038187    -1.1292348
C           0.9584458    -1.5806561     0.5740179
H           0.3778344    -1.2428914     1.4367628
H           1.9360165    -1.9466020     0.8935287
H           0.4117459    -2.4146510     0.1177451
O           0.0814347     0.1967302    -0.7868826
19
250_C8H8ClNO_18-0-1-9 (135,) energy =    -899.8500158
C           1.0523092    -0.5415721    -0.5570766
N           2.3013128    -0.2268448    -1.1047731
H           2.1880813     0.2700026    -1.9850089
C           5.9000754     0.7643615     0.8890831
H           6.8321345     1.0146968     1.3862250
C           4.7091329     0.6817899     1.6095196
H           4.7007161     0.8795172     2.6774236
C           3.5132471     0.3734049     0.9645683
H           2.5870820     0.3616612     1.5282125
C           3.4818459     0.1070730    -0.4137608
C           4.6955362     0.2020020    -1.1224728
Cl          4.7094087    -0.0864209    -2.8581708
C           5.8878469     0.5344210    -0.4864517
H           6.7986176     0.6020906    -1.0719304
C           1.0194206    -1.5624164     0.5661901
H           0.5472106    -1.1258536     1.4521575
H           2.0026745    -1.9561546     0.8296176
H           0.3787543    -2.3867403     0.2361690
O           0.0378665    -0.0543903    -1.0233155
19
250_C8H8ClNO_18-0-1-9 (150,) energy =    -899.8525948
C           1.0735337    -0.6248594    -0.6181301
N           2.2991012    -0.1593761    -1.0890261
H           2.1968895     0.2987971    -1.9897040
C           5.9054555     0.7307067     0.9329912
H           6.8396541     0.9563776     1.4378812
C           4.7104756     0.6539071     1.6476935
H           4.7009036     0.8323428     2.7189737
C           3.5125399     0.3770107     0.9928291
H           2.5839845     0.3719525     1.5517953
C           3.4817450     0.1340013    -0.3900694
C           4.6994628     0.2261645    -1.0929504
Cl          4.7171866    -0.0290108    -2.8341068
C           5.8945705     0.5276388    -0.4466378
H           6.8084038     0.5921206    -1.0276390
C           1.0706280    -1.5659550     0.5736572
H           0.6426560    -1.0626800     1.4475636
H           2.0587401    -1.9520810     0.8313641
H           0.4042420    -2.3964175     0.3245612
O           0.0471357    -0.3202394    -1.2024417
19
250_C8H8ClNO_18-0-1-9 (165,) energy =    -899.8540715
C           1.0506805    -0.6642296    -0.6586517
N           2.2355853    -0.0635453    -1.0671554
H           2.1526999     0.3366984    -1.9958724
C           5.8994330     0.6930489     0.9026981
H           6.8475157     0.8867307     1.3948504
C           4.7150279     0.6342891     1.6366359
H           4.7285345     0.7953371     2.7106197
C           3.4997447     0.3985507     0.9982606
H           2.5803524     0.4086836     1.5716178
C           3.4388353     0.1778286    -0.3875485
C           4.6466492     0.2536309    -1.1099655
Cl          4.6310206     0.0272894    -2.8556386
C           5.8599445     0.5138721    -0.4795643
H           6.7651931     0.5652017    -1.0751348
C           1.0588371    -1.5264752     0.5907958
H           0.6674433    -0.9601660     1.4436269
H           2.0479620    -1.9102139     0.8504655
H           0.3724847    -2.3569470     0.4104683
O           0.0447813    -0.5194275    -1.3348202
19
250_C8H8ClNO_18-0-1-9 (180,) energy =    -899.8545934
C           1.0798504    -0.7129344    -0.6912297
N           2.2084520     0.0269036    -1.0264838
H           2.1541781     0.3716487    -1.9791020
C           5.9139164     0.6635298     0.9093061
H           6.8711623     0.8286532     1.3940926
C           4.7360786     0.6225459     1.6551171
H           4.7640158     0.7690513     2.7309011
C           3.5097587     0.4233079     1.0258795
H           2.5956695     0.4475566     1.6072205
C           3.4292723     0.2215729    -0.3616924
C           4.6309302     0.2801507    -1.0958494
Cl          4.5945975     0.0769127    -2.8444428
C           5.8564884     0.5035878    -0.4745671
H           6.7567539     0.5415769    -1.0786380
C           1.0749862    -1.5064336     0.6018079
H           0.6973442    -0.8902137     1.4260114
H           2.0625451    -1.8829457     0.8801353
H           0.3821969    -2.3387953     0.4655265
O           0.1284652    -0.7191955    -1.4560490
