19
059_C6H9N3O_0-2-4-18 (-165,) energy =    -473.5430117
C           5.0841224    -0.4308831    -0.2115608
N           4.3713145    -1.1178053     0.6591316
N           5.6797901    -0.9196303    -1.3812627
H           6.6940078    -0.9348917    -1.4307529
C           5.1018343    -1.7941391    -2.3049573
C           3.5994622    -1.9652004    -2.2425310
H           3.0878096    -0.9967723    -2.2248358
H           3.3179702    -2.4941515    -1.3277313
H           3.2884121    -2.5346250    -3.1192221
C           4.0023959    -0.2060585     1.6200506
H           3.3964413    -0.4981350     2.4669038
C           4.5134337     1.0341344     1.3344178
H           4.4645198     1.9813552     1.8510300
N           5.1985715     0.8931816     0.1423492
C           5.9050937     1.9359281    -0.5821429
H           6.0157024     1.6266286    -1.6233826
H           6.8979242     2.1197889    -0.1553359
H           5.3275052     2.8634213    -0.5469720
O           5.8126516    -2.3519590    -3.1230387
19
059_C6H9N3O_0-2-4-18 (-150,) energy =    -473.5422839
C           5.1046705    -0.4192210    -0.2375976
N           4.4327588    -1.1472552     0.6321190
N           5.6863118    -0.8615077    -1.4375251
H           6.6989971    -0.9619731    -1.4319831
C           5.1112075    -1.8292859    -2.2755105
C           3.5995067    -1.8956594    -2.3036756
H           3.1510216    -0.8974470    -2.3353064
H           3.2364399    -2.3896829    -1.3976092
H           3.3010051    -2.4703796    -3.1816623
C           4.0620223    -0.2696749     1.6235045
H           3.4862431    -0.5989949     2.4777169
C           4.5289163     0.9919476     1.3544648
H           4.4639043     1.9254574     1.8937746
N           5.1881855     0.8984869     0.1439221
C           5.8496061     1.9754153    -0.5733270
H           5.9578664     1.6819349    -1.6192139
H           6.8409682     2.1854587    -0.1555203
H           5.2419604     2.8825387    -0.5172923
O           5.8315228    -2.5469862    -2.9451878
19
059_C6H9N3O_0-2-4-18 (-135,) energy =    -473.5398971
C           5.0998598    -0.3894326    -0.2822883
N           4.4464180    -1.1419683     0.5798209
N           5.6455328    -0.7942327    -1.5160212
H           6.6584663    -0.9098508    -1.4955848
C           5.0940171    -1.8701718    -2.2459939
C           3.5866983    -1.8974730    -2.3706617
H           3.1722199    -0.8943360    -2.5097737
H           3.1578785    -2.3121695    -1.4532680
H           3.3225650    -2.5367416    -3.2147776
C           4.1060808    -0.2939418     1.6084387
H           3.5518229    -0.6483594     2.4667925
C           4.5716583     0.9732007     1.3670081
H           4.5268445     1.8895874     1.9368313
N           5.1980306     0.9148831     0.1358651
C           5.8433521     2.0101788    -0.5677298
H           5.9149997     1.7491942    -1.6253852
H           6.8494047     2.2009964    -0.1764776
H           5.2442232     2.9186219    -0.4626868
O           5.8280194    -2.7086496    -2.7323918
19
059_C6H9N3O_0-2-4-18 (-120,) energy =    -473.5357840
C           5.0878353    -0.3582514    -0.3204325
N           4.4502161    -1.1358037     0.5300431
N           5.5842686    -0.7203929    -1.5913373
H           6.6008318    -0.8205780    -1.5782287
C           5.0755013    -1.8948819    -2.2163747
C           3.5838881    -1.9220572    -2.4591759
H           3.2106003    -0.9469363    -2.7857004
H           3.0794453    -2.1829117    -1.5232328
H           3.3644311    -2.6842149    -3.2088993
C           4.1527277    -0.3235242     1.6015279
H           3.6215903    -0.7050972     2.4628204
C           4.6263143     0.9458064     1.3943001
H           4.6126644     1.8398130     2.0000651
N           5.2138409     0.9276799     0.1411863
C           5.8441991     2.0424346    -0.5444030
H           5.8840655     1.8152112    -1.6115884
H           6.8618030     2.2174284    -0.1760803
H           5.2523753     2.9494377    -0.3940884
O           5.8263033    -2.8055289    -2.4997039
19
059_C6H9N3O_0-2-4-18 (-105,) energy =    -473.5305384
C           5.0306494    -0.2980519    -0.3409998
N           4.4116975    -1.0974331     0.5013567
N           5.4389380    -0.6101504    -1.6575169
H           6.4602408    -0.6332207    -1.7022061
C           5.0062670    -1.8806694    -2.1801788
C           3.5492807    -1.9445001    -2.5656795
H           3.3382154    -1.2223029    -3.3622739
H           2.9294313    -1.6857510    -1.7017456
H           3.3084156    -2.9536509    -2.9026250
C           4.1853260    -0.3253163     1.6217509
H           3.6844633    -0.7328500     2.4892053
C           4.6813688     0.9388834     1.4483641
H           4.7233211     1.8045023     2.0926841
N           5.2095906     0.9628486     0.1659850
C           5.8415236     2.0872728    -0.5007113
H           5.7425125     1.9547419    -1.5805128
H           6.9050979     2.1650093    -0.2447453
H           5.3401888     3.0136064    -0.2086254
O           5.7857472    -2.8021904    -2.2728540
19
059_C6H9N3O_0-2-4-18 (-90,) energy =    -473.5268006
C           4.2998719     0.1133361    -0.6305862
N           3.3650072    -0.2098123     0.2392987
N           4.2817254    -0.2333926    -2.0068593
H           3.3035142    -0.4515671    -2.1972285
C           5.0849949    -1.3895213    -2.3543728
C           4.3408919    -2.7068688    -2.3902027
H           3.5175040    -2.6564652    -3.1145703
H           3.8959134    -2.9091191    -1.4089090
H           5.0192423    -3.5127809    -2.6742841
C           3.7683615     0.3759736     1.4206819
H           3.1799787     0.2806913     2.3231616
C           4.9570497     1.0364930     1.2510642
H           5.5897144     1.5894936     1.9295693
N           5.2957080     0.8720847    -0.0817399
C           6.4518570     1.4386053    -0.7615895
H           6.4588207     2.5268885    -0.6439287
H           6.3949663     1.1785117    -1.8181085
H           7.3788515     1.0253347    -0.3519239
O           6.2456834    -1.2616319    -2.6689304
19
059_C6H9N3O_0-2-4-18 (-75,) energy =    -473.5318401
C           4.2583741     0.0997386    -0.5158048
N           3.3268595    -0.1703384     0.3742177
N           4.1918043    -0.3098481    -1.8736492
H           3.2085576    -0.5283783    -2.0258746
C           4.9998955    -1.4126888    -2.2933405
C           4.2325187    -2.6684253    -2.6537381
H           3.4410840    -2.4424724    -3.3794337
H           3.7485466    -3.0795177    -1.7596850
H           4.9131479    -3.4062521    -3.0805486
C           3.7466283     0.4656675     1.5234849
H           3.1695513     0.4116612     2.4365550
C           4.9401325     1.1041044     1.3117960
H           5.5856724     1.6816038     1.9569277
N           5.2677213     0.8710026    -0.0139990
C           6.3928734     1.4505413    -0.7373601
H           6.1888468     2.4962757    -0.9932382
H           6.5682612     0.8697232    -1.6421245
H           7.2880830     1.4033236    -0.1113106
O           6.1964502    -1.2936285    -2.4565168
19
059_C6H9N3O_0-2-4-18 (-60,) energy =    -473.5371110
C           4.2845803     0.0780192    -0.4341858
N           3.3596532    -0.1431288     0.4758634
N           4.1946056    -0.4118834    -1.7619483
H           3.2127119    -0.6322512    -1.9104360
C           5.0258814    -1.4668807    -2.2056526
C           4.2839917    -2.6386192    -2.8206941
H           3.5313966    -2.2950477    -3.5405974
H           3.7601791    -3.2012882    -2.0383511
H           4.9957122    -3.2934815    -3.3247430
C           3.7816310     0.5629763     1.5817466
H           3.2119185     0.5580239     2.5009790
C           4.9676623     1.1979858     1.3226652
H           5.6145463     1.8156809     1.9279366
N           5.2893313     0.8881584     0.0114516
C           6.3988112     1.4440813    -0.7542378
H           6.1264596     2.4168704    -1.1791190
H           6.6663468     0.7466638    -1.5471860
H           7.2581628     1.5721827    -0.0911871
O           6.2390597    -1.3786526    -2.2033296
19
059_C6H9N3O_0-2-4-18 (-45,) energy =    -473.5415237
C           4.1768902     0.1007425    -0.1636846
N           3.2712401    -0.1433369     0.7601885
N           4.1204631    -0.4347699    -1.4704955
H           3.1580939    -0.6968407    -1.6640547
C           5.0504637    -1.3957217    -1.9050193
C           4.4542134    -2.4987846    -2.7611665
H           3.7618464    -2.0945065    -3.5086716
H           3.8930882    -3.1999586    -2.1312753
H           5.2595325    -3.0363643    -3.2630977
C           3.6666207     0.6113232     1.8426071
H           3.1008019     0.6091139     2.7642657
C           4.8153978     1.3018278     1.5557581
H           5.4311250     1.9721531     2.1368906
N           5.1347809     0.9820545     0.2468561
C           6.2515002     1.5098707    -0.5247345
H           6.4666186     2.5243882    -0.1796312
H           5.9729272     1.5395366    -1.5794172
H           7.1372428     0.8798370    -0.4209639
O           6.2430778    -1.2864871    -1.6910828
19
059_C6H9N3O_0-2-4-18 (-30,) energy =    -473.5444908
C           4.1479550     0.0476603    -0.0705913
N           3.2546255    -0.1420640     0.8781645
N           4.0663160    -0.5588243    -1.3405806
H           3.1056880    -0.8081395    -1.5510609
C           5.0251004    -1.4568878    -1.8129488
C           4.4946254    -2.4498445    -2.8332494
H           3.8212403    -1.9716703    -3.5531356
H           3.9346802    -3.2444275    -2.3247730
H           5.3369654    -2.8980002    -3.3616789
C           3.6602248     0.6770752     1.9077879
H           3.1070810     0.7280101     2.8357046
C           4.8020592     1.3533074     1.5646712
H           5.4230302     2.0588530     2.0964130
N           5.1067253     0.9570308     0.2735231
C           6.2106171     1.4448463    -0.5412423
H           6.4937240     2.4377066    -0.1838576
H           5.8844518     1.5206692    -1.5810449
H           7.0634410     0.7653759    -0.4950004
O           6.1954355    -1.4022555    -1.4787919
19
059_C6H9N3O_0-2-4-18 (-15,) energy =    -473.5454963
C           4.0663392     0.0548732    -0.0216954
N           3.1780996    -0.0478421     0.9456638
N           3.9477422    -0.6237765    -1.2471652
H           2.9843429    -0.8175421    -1.4922889
C           4.9124857    -1.4725970    -1.7711094
C           4.4203458    -2.3463440    -2.9134668
H           3.6332585    -1.8667222    -3.5040718
H           4.0218664    -3.2840887    -2.5072931
H           5.2658773    -2.5899840    -3.5591203
C           3.6158963     0.8236827     1.9165087
H           3.0741218     0.9485992     2.8441229
C           4.7716003     1.4451177     1.5207644
H           5.4174745     2.1653647     2.0005828
N           5.0528506     0.9594425     0.2550802
C           6.1619458     1.3674349    -0.5952889
H           6.5256771     2.3368172    -0.2476232
H           5.8119498     1.4707342    -1.6258059
H           6.9633993     0.6270700    -0.5731519
O           6.0587798    -1.5076209    -1.3549952
19
059_C6H9N3O_0-2-4-18 (0,) energy =    -473.5446870
C           3.5885017     0.3109601     0.1639493
N           2.7416869     0.5258688     1.1504728
N           3.2851683    -0.5156067    -0.9276594
H           2.3045747    -0.5247623    -1.1748847
C           4.1072601    -1.4838958    -1.4721234
C           3.5185199    -2.2041154    -2.6745982
H           2.4240662    -2.2322606    -2.6706780
H           3.9109244    -3.2224616    -2.6961439
H           3.8409071    -1.6999159    -3.5937260
C           3.3691935     1.4446244     1.9588180
H           2.9013857     1.8085958     2.8634017
C           4.5972862     1.7755363     1.4489222
H           5.3826266     2.4304654     1.7960136
N           4.7332358     1.0532667     0.2752704
C           5.8500569     1.1377325    -0.6547534
H           6.4427055     2.0190657    -0.4012633
H           5.4734324     1.2509155    -1.6757876
H           6.4633116     0.2364254    -0.6068708
O           5.2241276    -1.7273187    -1.0413510
19
059_C6H9N3O_0-2-4-18 (15,) energy =    -473.5454963
C           4.4908064    -0.2362091     0.1953204
N           3.9388907    -0.5679084     1.3445074
N           4.7395298    -1.1629360    -0.8320965
H           4.8762160    -2.1034847    -0.4821043
C           4.2713509    -1.0383291    -2.1324950
C           4.3710118    -2.3125946    -2.9552987
H           3.4576327    -2.9048269    -2.8204380
H           5.2266837    -2.9331472    -2.6703668
H           4.4479809    -2.0444520    -4.0103790
C           3.9516509     0.5912335     2.0861673
H           3.5514190     0.6192996     3.0904659
C           4.5136069     1.6157085     1.3698828
H           4.6840964     2.6584518     1.5929342
N           4.8803003     1.0731154     0.1499979
C           5.5659453     1.7695115    -0.9291847
H           6.0492878     2.6572906    -0.5155731
H           4.8672506     2.0470294    -1.7202600
H           6.3323330     1.1165342    -1.3551240
O           3.8263174     0.0066522    -2.5778193
19
059_C6H9N3O_0-2-4-18 (30,) energy =    -473.5444908
C           4.5054410    -0.1968056     0.1095611
N           3.8993090    -0.5821239     1.2133309
N           4.8324250    -1.0791241    -0.9401690
H           4.9057457    -2.0292565    -0.5921184
C           4.2936733    -0.9614461    -2.2226875
C           4.2311528    -2.2706832    -2.9910352
H           3.3818866    -2.8696035    -2.6396199
H           5.1412344    -2.8652724    -2.8548310
H           4.0914425    -2.0526348    -4.0505405
C           3.8393063     0.5516756     1.9921338
H           3.3839352     0.5354509     2.9729323
C           4.4123528     1.6138131     1.3423034
H           4.5415258     2.6522528     1.6089597
N           4.8602384     1.1216686     0.1281654
C           5.5843880     1.8677450    -0.8913294
H           6.0914923     2.7083821    -0.4119374
H           4.9093507     2.2241364    -1.6713530
H           6.3315693     1.2168285    -1.3510569
O           3.9636163     0.1100949    -2.6993205
19
059_C6H9N3O_0-2-4-18 (45,) energy =    -473.5415237
C           4.5998503    -0.1880214     0.0519139
N           3.9687441    -0.6191329     1.1239055
N           5.0009320    -1.0324279    -1.0081913
H           5.0542533    -1.9829029    -0.6531493
C           4.3942183    -0.9511290    -2.2740620
C           4.1544523    -2.2950359    -2.9386500
H           3.3025521    -2.7996921    -2.4665720
H           5.0271013    -2.9510394    -2.8400603
H           3.9345267    -2.1370545    -3.9951253
C           3.8277300     0.4981226     1.9172041
H           3.3368902     0.4441793     2.8793771
C           4.3761380     1.5959314     1.3066039
H           4.4483202     2.6341889     1.5946701
N           4.8920950     1.1441683     0.1036146
C           5.6186624     1.9372431    -0.8782897
H           6.1596840     2.7304752    -0.3560862
H           4.9416460     2.3665914    -1.6196124
H           6.3326411     1.2950307    -1.3965909
O           4.1774473     0.1133985    -2.8216211
19
059_C6H9N3O_0-2-4-18 (60,) energy =    -473.5371107
C           4.7331598    -0.2282854    -0.1999304
N           4.1302729    -0.6701239     0.8835325
N           5.1880459    -1.0848920    -1.2345304
H           5.2482003    -2.0121305    -0.8206089
C           4.5293358    -1.1275970    -2.4855936
C           4.1083473    -2.5157537    -2.9299338
H           3.2626853    -2.8616552    -2.3230950
H           4.9248033    -3.2362942    -2.7998986
H           3.8143245    -2.4862843    -3.9797631
C           3.9328920     0.4537461     1.6565666
H           3.4413367     0.3936265     2.6179948
C           4.4163102     1.5661670     1.0195047
H           4.4281665     2.6133792     1.2832593
N           4.9420632     1.1209723    -0.1822150
C           5.6882356     1.9252192    -1.1427830
H           6.7413084     2.0004713    -0.8488619
H           5.2549654     2.9280072    -1.1779814
H           5.6023540     1.4694685    -2.1285001
O           4.4247457    -0.1449911    -3.1949212
19
059_C6H9N3O_0-2-4-18 (75,) energy =    -473.5318387
C           4.8050662    -0.2733044    -0.2284463
N           4.1779162    -0.7514712     0.8254723
N           5.3369040    -1.0859422    -1.2641914
H           5.4002378    -2.0152563    -0.8517230
C           4.6283313    -1.1577297    -2.5046100
C           3.9875897    -2.4986691    -2.7996742
H           3.1886790    -2.6984248    -2.0755493
H           4.7237986    -3.3069335    -2.7058468
H           3.5805803    -2.4975745    -3.8116728
C           3.8993165     0.3559471     1.5985554
H           3.3748142     0.2645768     2.5399272
C           4.3544716     1.4953918     0.9891618
H           4.3105933     2.5392396     1.2628034
N           4.9476902     1.0845353    -0.1935432
C           5.6844580     1.9289040    -1.1257540
H           6.6718693     2.1773588    -0.7210726
H           5.1252438     2.8525747    -1.2983036
H           5.7886718     1.4018009    -2.0733715
O           4.6522771    -0.2416163    -3.2999431
19
059_C6H9N3O_0-2-4-18 (90,) energy =    -473.5268005
C           4.8787189    -0.2802369    -0.3282955
N           4.2230234    -0.7952022     0.6914850
N           5.4638523    -1.0333719    -1.3795222
H           5.5516518    -1.9741456    -0.9948429
C           4.6709585    -1.1059491    -2.5913136
C           3.7799327    -2.3235342    -2.7093897
H           3.0797293    -2.3548120    -1.8664215
H           4.3832784    -3.2395246    -2.6628222
H           3.2366517    -2.3000015    -3.6552401
C           3.8889385     0.2884045     1.4761076
H           3.3405060     0.1638729     2.3999357
C           4.3369019     1.4523750     0.9081174
H           4.2556718     2.4882734     1.2026660
N           4.9856444     1.0807301    -0.2576586
C           5.6806754     1.9618125    -1.1852486
H           6.4476385     2.5342461    -0.6539136
H           4.9768018     2.6537362    -1.6582822
H           6.1416485     1.3531220    -1.9625045
O           4.7999004    -0.2773774    -3.4627377
19
059_C6H9N3O_0-2-4-18 (105,) energy =    -473.5305376
C           4.2716281     0.2194169    -0.7134901
N           3.2290774    -0.3030750    -0.1034990
N           4.7878689    -0.1543405    -1.9744975
H           4.6474191     0.6084386    -2.6408764
C           4.1984550    -1.3139408    -2.5927023
C           4.6025331    -2.6327341    -1.9821294
H           4.3432100    -2.6384548    -0.9189360
H           5.6859862    -2.7722813    -2.0673222
H           4.0799472    -3.4426862    -2.4928591
C           3.1604551     0.3540504     1.1071600
H           2.3851003     0.1233212     1.8248170
C           4.1631081     1.2800757     1.2146190
H           4.4199934     1.9968641     1.9804029
N           4.8972148     1.1767997     0.0422649
C           6.0791287     1.9372860    -0.3220297
H           6.6681013     1.3513318    -1.0314136
H           6.6815089     2.1251117     0.5704601
H           5.8177437     2.8985986    -0.7807033
O           3.4313790    -1.1894012    -3.5209002
19
059_C6H9N3O_0-2-4-18 (120,) energy =    -473.5357837
C           4.2044537     0.2475399    -0.7411100
N           3.1790790    -0.2740069    -0.0999256
N           4.6338976    -0.0651666    -2.0487305
H           4.3964385     0.6796125    -2.7063613
C           4.1891006    -1.2803055    -2.6449329
C           4.5424730    -2.5490891    -1.9035857
H           3.8388366    -2.6804766    -1.0752838
H           5.5529402    -2.5043119    -1.4867481
H           4.4506179    -3.3931712    -2.5893203
C           3.1894123     0.3283059     1.1384722
H           2.4458403     0.0851853     1.8851405
C           4.2215957     1.2248701     1.2334739
H           4.5380274     1.8960367     2.0181949
N           4.8905920     1.1570469     0.0235608
C           6.0749001     1.9039744    -0.3630889
H           6.5549427     1.3861027    -1.1958745
H           6.7718964     1.9503069     0.4780630
H           5.8232377     2.9252335    -0.6721693
O           3.5478416    -1.2515580    -3.6750047
19
059_C6H9N3O_0-2-4-18 (135,) energy =    -473.5398971
C           4.1583573     0.2537954    -0.7542863
N           3.1421396    -0.2623422    -0.0928983
N           4.5332383    -0.0254191    -2.0829051
H           4.2792032     0.7104817    -2.7414905
C           4.2443276    -1.2714404    -2.6817858
C           4.5279955    -2.5015610    -1.8483437
H           3.7037508    -2.6572477    -1.1456004
H           5.4481959    -2.3943709    -1.2659451
H           4.6009271    -3.3610631    -2.5168412
C           3.2044613     0.3060191     1.1585454
H           2.4814363     0.0575904     1.9234652
C           4.2578548     1.1800771     1.2427219
H           4.6137442     1.8221078     2.0349403
N           4.8850753     1.1319012     0.0115723
C           6.0670764     1.8725207    -0.3952640
H           6.5143410     1.3682155    -1.2540496
H           6.7895065     1.8918203     0.4250880
H           5.8185620     2.9031415    -0.6740015
O           3.7926126    -1.3084992    -3.8100436
19
059_C6H9N3O_0-2-4-18 (150,) energy =    -473.5422839
C           4.1070212     0.2613924    -0.7399807
N           3.1077289    -0.2541293    -0.0518255
N           4.4266103     0.0057175    -2.0839429
H           4.1935679     0.7426710    -2.7459445
C           4.2914629    -1.2504845    -2.6948790
C           4.4856002    -2.4633590    -1.8107491
H           3.5968482    -2.6118923    -1.1903537
H           5.3394816    -2.3404244    -1.1367018
H           4.6356250    -3.3319079    -2.4536983
C           3.2205060     0.2897822     1.2059031
H           2.5226082     0.0351174     1.9918654
C           4.2866016     1.1509340     1.2685094
H           4.6776701     1.7731535     2.0599830
N           4.8690092     1.1196763     0.0160670
C           6.0429485     1.8583012    -0.4175187
H           6.4522862     1.3715457    -1.3047859
H           6.7962702     1.8501292     0.3747470
H           5.7948767     2.8977963    -0.6612202
O           4.0486021    -1.3148345    -3.8862205
19
059_C6H9N3O_0-2-4-18 (165,) energy =    -473.5430117
C           4.0857706     0.2503188    -0.7157763
N           3.1233660    -0.2767042     0.0149409
N           4.3491473    -0.0048653    -2.0675677
H           4.2166364     0.7520667    -2.7315051
C           4.3391805    -1.2532889    -2.6946732
C           4.3942292    -2.4725914    -1.7998946
H           3.4612620    -2.5703208    -1.2378578
H           5.2047389    -2.3935906    -1.0672259
H           4.5480086    -3.3478925    -2.4321844
C           3.2811968     0.2723628     1.2656729
H           2.6207642     0.0082621     2.0803565
C           4.3337222     1.1514499     1.2815716
H           4.7467313     1.7840758     2.0534161
N           4.8646602     1.1245423     0.0058002
C           6.0100390     1.8787561    -0.4744131
H           6.4047355     1.3878033    -1.3661908
H           6.7869964     1.8958096     0.2944370
H           5.7357663     2.9101800    -0.7246507
O           4.3133565    -1.3084268    -3.9120418
19
059_C6H9N3O_0-2-4-18 (180,) energy =    -473.5425643
C           4.0855166     0.2300569    -0.7095337
N           3.1783336    -0.3255612     0.0680568
N           4.2968941    -0.0340657    -2.0650418
H           4.3649852     0.7438027    -2.7115412
C           4.3705849    -1.2703394    -2.7062362
C           4.2264017    -2.5057551    -1.8452709
H           3.2493360    -2.5248578    -1.3559358
H           4.9793288    -2.5187582    -1.0491923
H           4.3539072    -3.3781463    -2.4872458
C           3.3659866     0.2495695     1.3042194
H           2.7526083    -0.0299376     2.1498930
C           4.3782635     1.1720017     1.2633848
H           4.7935954     1.8369556     2.0060882
N           4.8572978     1.1472495    -0.0354774
C           5.9450103     1.9443770    -0.5758723
H           6.4424756     1.3846908    -1.3716834
H           6.6705618     2.1475419     0.2151926
H           5.5872599     2.8993180    -0.9794021
O           4.5631543    -1.3018856    -3.9103187
