19
059_C6H9N3O_1-0-2-4 (-165,) energy =    -473.5421938
C           3.7594622     0.4908476    -0.3420522
N           2.5942422     0.8120253     0.1910283
N           3.7711994    -0.4404641    -1.3919144
H           2.8232091    -0.6214722    -1.6961551
C           4.7815433    -1.1739518    -1.9683073
C           4.3279685    -2.0422272    -3.1332746
H           3.2483454    -2.2192381    -3.1602079
H           4.8505938    -2.9997698    -3.0745234
H           4.6226866    -1.5612741    -4.0730380
C           2.8783632     1.7835589     1.1196822
H           2.0996196     2.2293118     1.7232011
C           4.2182918     2.0518184     1.1300444
H           4.8252757     2.7312815     1.7092764
N           4.7956573     1.2234319     0.1732735
C           6.2118364     1.2924767    -0.1888167
H           6.7254288     0.3624954     0.0461166
H           6.6487687     2.1207896     0.3727725
H           6.3272166     1.4870505    -1.2567096
O           5.9500454    -1.1349092    -1.6098781
19
059_C6H9N3O_1-0-2-4 (-150,) energy =    -473.5438652
C           3.7478460     0.5128227    -0.3282444
N           2.6011714     0.8085595     0.2541994
N           3.7688936    -0.3450596    -1.4381328
H           2.8469389    -0.4425414    -1.8429264
C           4.7554757    -1.2120723    -1.8555524
C           4.3982362    -2.0123766    -3.0991012
H           3.3235803    -2.0638290    -3.2993180
H           4.7952779    -3.0235304    -2.9843430
H           4.8890987    -1.5610876    -3.9690943
C           2.9181773     1.7454121     1.2088380
H           2.1614542     2.1635499     1.8584675
C           4.2580937     2.0200532     1.1820341
H           4.8844452     2.6734586     1.7707990
N           4.7981978     1.2342140     0.1724996
C           6.1797295     1.3302003    -0.2910829
H           6.7377786     0.4254751    -0.0551611
H           6.6315675     2.1992759     0.1914876
H           6.2037762     1.4775461    -1.3739101
O           5.8418824    -1.3186260    -1.3055128
19
059_C6H9N3O_1-0-2-4 (-135,) energy =    -473.5451602
C           3.9751121     0.1896866    -0.3340600
N           2.8722086     0.3620836     0.3667682
N           3.9908038    -0.5667584    -1.5169553
H           3.0715238    -0.6415292    -1.9347195
C           4.9342523    -1.5152615    -1.8729443
C           4.5429134    -2.3511266    -3.0816411
H           4.0005106    -1.7702443    -3.8348225
H           3.9001871    -3.1809626    -2.7627554
H           5.4475624    -2.7706536    -3.5243391
C           3.2260884     1.2342051     1.3703365
H           2.5100420     1.5518101     2.1159559
C           4.5444768     1.5871795     1.2577139
H           5.1856834     2.2247036     1.8480424
N           5.0268332     0.9246125     0.1395586
C           6.3577011     1.0887341    -0.4312192
H           6.9950413     0.2357460    -0.1959808
H           6.7871796     2.0108660    -0.0334928
H           6.2832445     1.1752669    -1.5181556
O           5.9847982    -1.6703003    -1.2709053
19
059_C6H9N3O_1-0-2-4 (-120,) energy =    -473.5454332
C           3.9778703     0.2315448    -0.3928644
N           2.8968033     0.3082511     0.3555242
N           4.0329350    -0.4762437    -1.6072169
H           3.1376355    -0.5082234    -2.0803495
C           4.8997421    -1.5362104    -1.8440196
C           4.5330113    -2.3810524    -3.0530468
H           4.1312116    -1.7787255    -3.8745152
H           3.7731407    -3.1195496    -2.7689446
H           5.4217450    -2.9162139    -3.3907224
C           3.2497966     1.1381883     1.3950035
H           2.5466920     1.3864175     2.1783562
C           4.5505864     1.5505239     1.2630668
H           5.1861321     2.1765252     1.8716542
N           5.0156848     0.9758947     0.0931717
C           6.3415431     1.1424077    -0.4837855
H           6.9691859     0.2747265    -0.2719325
H           6.7892504     2.0486650    -0.0702227
H           6.2547333     1.2540994    -1.5678944
O           5.8770678    -1.7557299    -1.1483746
19
059_C6H9N3O_1-0-2-4 (-105,) energy =    -473.5443788
C           3.9915667     0.2771478    -0.4413827
N           2.9347654     0.2501948     0.3433755
N           4.0966885    -0.3997656    -1.6732251
H           3.2393796    -0.3737485    -2.2137115
C           4.8610862    -1.5580899    -1.8054042
C           4.5049637    -2.4102361    -3.0115884
H           4.2329255    -1.8030882    -3.8814283
H           3.6515101    -3.0544137    -2.7662906
H           5.3560199    -3.0464487    -3.2589259
C           3.2754440     1.0444173     1.4141096
H           2.5835947     1.2184864     2.2269807
C           4.5514303     1.5283038     1.2707412
H           5.1708903     2.1550225     1.8950717
N           5.0069178     1.0410940     0.0606462
C           6.3316701     1.2212865    -0.5125916
H           6.9549306     0.3441632    -0.3212797
H           6.7876107     2.1119001    -0.0749370
H           6.2428895     1.3616856    -1.5929402
O           5.7554683    -1.8391408    -1.0272401
19
059_C6H9N3O_1-0-2-4 (-90,) energy =    -473.5422664
C           4.0451323     0.2966095    -0.4901890
N           3.0119346     0.1748813     0.3168216
N           4.2067549    -0.3627642    -1.7278912
H           3.4143163    -0.2539554    -2.3518282
C           4.8346355    -1.6106673    -1.7782949
C           4.4842943    -2.4391642    -3.0022335
H           4.3907318    -1.8233616    -3.9032665
H           3.5265370    -2.9486003    -2.8389254
H           5.2568195    -3.1947067    -3.1517690
C           3.3239769     0.9554889     1.4047656
H           2.6376017     1.0640966     2.2335907
C           4.5662501     1.5210128     1.2551684
H           5.1564076     2.1675391     1.8878081
N           5.0247102     1.1007188     0.0235962
C           6.3461556     1.3220088    -0.5409791
H           7.0193194     0.5005731    -0.2777041
H           6.7453729     2.2655557    -0.1619533
H           6.2666640     1.3778292    -1.6286616
O           5.6190351    -1.9733572    -0.9217844
19
059_C6H9N3O_1-0-2-4 (-75,) energy =    -473.5399883
C           4.1234802     0.2427458    -0.4785733
N           3.1029863     0.0624369     0.3332102
N           4.3181021    -0.3971343    -1.7216640
H           3.6610871    -0.1244035    -2.4454063
C           4.7246109    -1.7360442    -1.7638464
C           4.3978667    -2.4430923    -3.0689906
H           4.5204203    -1.7870881    -3.9378121
H           3.3566470    -2.7878222    -3.0483886
H           5.0475148    -3.3134133    -3.1716490
C           3.3689978     0.8601325     1.4189840
H           2.6828378     0.9217682     2.2528836
C           4.5682846     1.5107668     1.2610405
H           5.1124747     2.2022092     1.8876651
N           5.0522484     1.1124536     0.0334020
C           6.3385976     1.4604847    -0.5453910
H           7.1522671     0.9536668    -0.0163561
H           6.4925799     2.5423989    -0.4945233
H           6.3454869     1.1436857    -1.5890181
O           5.3098875    -2.2655159    -0.8408439
19
059_C6H9N3O_1-0-2-4 (-60,) energy =    -473.5383079
C           4.2023947     0.2051658    -0.4158895
N           3.1953475    -0.0141108     0.4023963
N           4.4333611    -0.4419235    -1.6475336
H           3.9616682    -0.0348954    -2.4488203
C           4.6087553    -1.8299909    -1.7052156
C           4.3307893    -2.4281100    -3.0755639
H           4.6656931    -1.7767972    -3.8906099
H           3.2523846    -2.5913209    -3.1929323
H           4.8350718    -3.3927543    -3.1473490
C           3.4172827     0.8183455     1.4711069
H           2.7339483     0.8511462     2.3089529
C           4.5727145     1.5394992     1.2941278
H           5.0694932     2.2838609     1.8991870
N           5.0827940     1.1373323     0.0780525
C           6.3234770     1.5848221    -0.5305169
H           7.1598195     1.4323422     0.1583386
H           6.2681906     2.6460000    -0.7970301
H           6.4954207     0.9959036    -1.4323937
O           4.9715104    -2.4844691    -0.7501899
19
059_C6H9N3O_1-0-2-4 (-45,) energy =    -473.5366335
C           4.3059864     0.1061337    -0.4027257
N           3.3309263    -0.1645991     0.4373475
N           4.5725901    -0.5463850    -1.6219031
H           4.2854459    -0.0468666    -2.4573598
C           4.5510704    -1.9430103    -1.7341924
C           4.3343405    -2.4356186    -3.1575805
H           4.8374746    -1.8062170    -3.9003531
H           3.2614448    -2.4389732    -3.3861786
H           4.7057315    -3.4584485    -3.2345259
C           3.5128395     0.7035310     1.4857907
H           2.8428879     0.7051335     2.3349828
C           4.6088010     1.5022651     1.2731198
H           5.0567945     2.2983255     1.8496416
N           5.1312176     1.1050562     0.0586640
C           6.3217165     1.6295791    -0.5864332
H           7.1246997     1.7365471     0.1481493
H           6.1307910     2.6053713    -1.0484392
H           6.6391641     0.9240193    -1.3562945
O           4.7125399    -2.6849631    -0.7893658
19
059_C6H9N3O_1-0-2-4 (-30,) energy =    -473.5348382
C           4.3613832     0.0388199    -0.3543206
N           3.4276534    -0.2532518     0.5225857
N           4.6451268    -0.6376089    -1.5537819
H           4.5764415    -0.0778902    -2.3964411
C           4.4287312    -2.0090972    -1.7402597
C           4.3285492    -2.4073513    -3.2066475
H           5.0123905    -1.8369984    -3.8456813
H           3.3062212    -2.2378972    -3.5666278
H           4.5515140    -3.4715875    -3.2946988
C           3.5871843     0.6688470     1.5305056
H           2.9411649     0.6649560     2.3979504
C           4.6260396     1.5201174     1.2558245
H           5.0378739     2.3687819     1.7817455
N           5.1415560     1.1006732     0.0419233
C           6.2840514     1.6600362    -0.6571695
H           7.0138356     2.0221264     0.0711730
H           5.9956329     2.4937101    -1.3096143
H           6.7505381     0.8778999    -1.2607994
O           4.3487518    -2.8037364    -0.8292478
19
059_C6H9N3O_1-0-2-4 (-15,) energy =    -473.5331891
C           4.4094889    -0.0289074    -0.2511689
N           3.5304960    -0.3320956     0.6751315
N           4.6936081    -0.7308730    -1.4318397
H           4.8889134    -0.1552055    -2.2409066
C           4.3051678    -2.0439705    -1.7143562
C           4.4010071    -2.3880701    -3.1962059
H           5.2266626    -1.8751052    -3.7024461
H           3.4667419    -2.1108608    -3.6998232
H           4.5317636    -3.4670061    -3.2931180
C           3.6734034     0.6503035     1.6309378
H           3.0605735     0.6507269     2.5220587
C           4.6455825     1.5454016     1.2756460
H           5.0276917     2.4413818     1.7417608
N           5.1384643     1.0971679     0.0577333
C           6.2183729     1.6856509    -0.7121609
H           6.8273562     2.3084861    -0.0536922
H           5.8450890     2.3121221    -1.5329106
H           6.8541342     0.8963426    -1.1246313
O           3.9365760    -2.8362772    -0.8752042
19
059_C6H9N3O_1-0-2-4 (0,) energy =    -473.5322361
C           4.4188889    -0.0696883    -0.1407975
N           3.6055389    -0.3875140     0.8384090
N           4.6516326    -0.7704461    -1.3278618
H           5.2225377    -0.2987433    -2.0140966
C           4.0666858    -1.9690460    -1.7347509
C           4.4381781    -2.3550110    -3.1634098
H           5.4486857    -2.0401345    -3.4479021
H           3.7277739    -1.9014357    -3.8653526
H           4.3599818    -3.4393827    -3.2572380
C           3.7643349     0.6204713     1.7673200
H           3.2024345     0.6141538     2.6913246
C           4.6777035     1.5440056     1.3432773
H           5.0627366     2.4551440     1.7760971
N           5.1117715     1.0964400     0.0990183
C           6.0992341     1.7325814    -0.7517680
H           6.4956855     2.6088024    -0.2360107
H           5.6595150     2.0679689    -1.6998636
H           6.9357306     1.0553657    -0.9626831
O           3.3253107    -2.6350566    -1.0449216
19
059_C6H9N3O_1-0-2-4 (15,) energy =    -473.5331885
C           4.4887630    -0.0804299    -0.1293143
N           3.7955327    -0.5145282     0.8971479
N           4.6452762    -0.6896510    -1.3829268
H           5.5660427    -0.6026170    -1.7936783
C           3.8613654    -1.7312948    -1.8882565
C           4.5071981    -2.4431141    -3.0712609
H           5.1638309    -3.2425344    -2.7063850
H           5.1036489    -1.7726342    -3.7004407
H           3.7194042    -2.8986621    -3.6732432
C           3.9399125     0.4629033     1.8578176
H           3.4671445     0.3638770     2.8254659
C           4.7225832     1.4890140     1.4027476
H           5.0717783     2.4053970     1.8547854
N           5.0687652     1.1461132     0.1028122
C           5.8589652     1.9351440    -0.8236075
H           5.8663383     2.9747059    -0.4896952
H           5.4118827     1.8967347    -1.8216744
H           6.8975372     1.5837136    -0.8814254
O           2.7771693    -2.0393202    -1.4439135
19
059_C6H9N3O_1-0-2-4 (30,) energy =    -473.5348382
C           4.6212282    -0.1413731    -0.2112986
N           3.9693700    -0.6269754     0.8208798
N           4.8067455    -0.7503071    -1.4649152
H           5.7716471    -0.8999915    -1.7381119
C           3.8891403    -1.6404718    -2.0377926
C           4.5043184    -2.5296625    -3.1100948
H           4.9887249    -3.3944091    -2.6399686
H           5.2554572    -2.0054651    -3.7120192
H           3.7074736    -2.8938966    -3.7600464
C           4.0365329     0.3584653     1.7779659
H           3.5769288     0.2265596     2.7481111
C           4.7336610     1.4443162     1.3150715
H           5.0112756     2.3850800     1.7670953
N           5.0974973     1.1290576     0.0175812
C           5.8191891     1.9773026    -0.9133079
H           5.5543394     3.0220476    -0.7329192
H           5.5297900     1.7140364    -1.9334329
H           6.9057921     1.8672234    -0.8081509
O           2.7189581    -1.6868479    -1.7274490
19
059_C6H9N3O_1-0-2-4 (45,) energy =    -473.5366335
C           4.7103832    -0.1732789    -0.1800628
N           4.1031418    -0.6965332     0.8626375
N           4.9288241    -0.7926632    -1.4258145
H           5.8704241    -1.1365172    -1.5842851
C           3.9209613    -1.5122586    -2.0815867
C           4.4512620    -2.5175288    -3.0934561
H           4.7268429    -3.4464641    -2.5791531
H           5.3354342    -2.1496175    -3.6262610
H           3.6607069    -2.7427929    -3.8106118
C           4.1005685     0.2981721     1.8094901
H           3.6595835     0.1425603     2.7848270
C           4.7112990     1.4299809     1.3295384
H           4.9122328     2.3955971     1.7699914
N           5.0918071     1.1302503     0.0368782
C           5.7469220     2.0222918    -0.9031473
H           5.2715929     3.0066584    -0.8728095
H           5.6388607     1.6088372    -1.9074639
H           6.8128327     2.1354157    -0.6726902
O           2.7398793    -1.3327382    -1.8764537
19
059_C6H9N3O_1-0-2-4 (60,) energy =    -473.5383079
C           4.8083186    -0.2125739    -0.0821905
N           4.2584792    -0.7457274     0.9879693
N           5.0432144    -0.8622871    -1.3117081
H           5.9154895    -1.3777106    -1.3725450
C           3.9830649    -1.4022736    -2.0501653
C           4.4065870    -2.4818123    -3.0340815
H           4.4901468    -3.4425885    -2.5113037
H           5.3739475    -2.2645691    -3.5006521
H           3.6409599    -2.5747862    -3.8055499
C           4.2106308     0.2718447     1.9080989
H           3.8025292     0.1156743     2.8975792
C           4.7316371     1.4284793     1.3816428
H           4.8686402     2.4197551     1.7885364
N           5.1108777     1.1161926     0.0934612
C           5.6773605     2.0264902    -0.8865150
H           5.0254934     2.8954766    -1.0175607
H           5.7599864     1.4989335    -1.8376345
H           6.6707053     2.3679033    -0.5752474
O           2.8377547    -1.0216726    -1.9260101
19
059_C6H9N3O_1-0-2-4 (75,) energy =    -473.5399883
C           4.8863292    -0.2827021    -0.0584173
N           4.3723769    -0.8107516     1.0324214
N           5.1385232    -0.9620250    -1.2698282
H           5.8823000    -1.6507523    -1.2218238
C           4.0774304    -1.2935698    -2.1206335
C           4.3824025    -2.4341494    -3.0777908
H           4.2351607    -3.3925078    -2.5646916
H           5.4137465    -2.4018876    -3.4458947
H           3.6904512    -2.3835889    -3.9196265
C           4.2814500     0.2318814     1.9215967
H           3.8984616     0.0853673     2.9225247
C           4.7305188     1.3974750     1.3503795
H           4.8071803     2.4097925     1.7194733
N           5.1232376     1.0618686     0.0724473
C           5.5884988     1.9735298    -0.9586819
H           4.7646640     2.5906807    -1.3318061
H           5.9905679     1.3855271    -1.7846115
H           6.3742575     2.6217862    -0.5597034
O           3.0204452    -0.6958467    -2.1024297
19
059_C6H9N3O_1-0-2-4 (90,) energy =    -473.5422664
C           4.9451568    -0.3229943     0.0055422
N           4.4810935    -0.8354251     1.1260962
N           5.1831176    -1.0346926    -1.1901428
H           5.7553199    -1.8625365    -1.0622577
C           4.1694149    -1.1558090    -2.1450115
C           4.3330156    -2.3370026    -3.0858559
H           3.9591651    -3.2472425    -2.6008892
H           5.3807037    -2.5045011    -3.3581078
H           3.7433500    -2.1575275    -3.9859025
C           4.3697551     0.2357261     1.9808357
H           4.0262784     0.1089185     2.9985790
C           4.7423512     1.3982060     1.3521450
H           4.7746961     2.4275780     1.6775099
N           5.1237483     1.0308822     0.0780914
C           5.4776885     1.9163011    -1.0194934
H           4.5933439     2.1639246    -1.6143355
H           6.2063267     1.4174838    -1.6619541
H           5.9215046     2.8292134    -0.6158422
O           3.2574410    -0.3541589    -2.2230980
19
059_C6H9N3O_1-0-2-4 (105,) energy =    -473.5443788
C           4.9065991    -0.3527604     0.0626159
N           4.5326605    -0.8484773     1.2235791
N           5.1345281    -1.1138954    -1.1016092
H           5.5991098    -1.9951921    -0.9138306
C           4.2235582    -1.1222390    -2.1568601
C           4.3585757    -2.3114318    -3.0925137
H           3.8163469    -3.1692490    -2.6757925
H           5.4028623    -2.6077582    -3.2371200
H           3.9119703    -2.0569142    -4.0548043
C           4.4389036     0.2438783     2.0550187
H           4.1566641     0.1367426     3.0935646
C           4.7402026     1.3967988     1.3746989
H           4.7586634     2.4360063     1.6679606
N           5.0568803     1.0049402     0.0881009
C           5.3839914     1.8699480    -1.0347522
H           4.5075929     2.0221793    -1.6696937
H           6.1746811     1.4067433    -1.6305696
H           5.7432535     2.8268954    -0.6503070
O           3.4094161    -0.2306047    -2.3199827
19
059_C6H9N3O_1-0-2-4 (120,) energy =    -473.5454332
C           4.8429372    -0.3640701     0.0836042
N           4.5748454    -0.8454345     1.2798858
N           5.0424795    -1.1709558    -1.0511941
H           5.4252023    -2.0801416    -0.8202339
C           4.2595510    -1.0985295    -2.1969413
C           4.4033310    -2.2937136    -3.1247660
H           3.7521677    -3.1068446    -2.7808187
H           5.4303297    -2.6720651    -3.1590369
H           4.0861993    -2.0011484    -4.1268156
C           4.5265570     0.2598805     2.0983383
H           4.3214393     0.1662438     3.1560595
C           4.7622626     1.4032981     1.3796444
H           4.7879015     2.4479036     1.6522550
N           4.9851385     0.9949999     0.0762685
C           5.3038372     1.8528621    -1.0555487
H           4.4214316     2.0216653    -1.6756724
H           6.0744062     1.3761145    -1.6672989
H           5.6912042     2.8005121    -0.6751742
O           3.5337103    -0.1490373    -2.4396267
19
059_C6H9N3O_1-0-2-4 (135,) energy =    -473.5451602
C           4.7743963    -0.3607787     0.1061639
N           4.6126267    -0.8344186     1.3254970
N           4.9217690    -1.2075385    -1.0042305
H           5.2400570    -2.1317515    -0.7401917
C           4.2893341    -1.0743332    -2.2284707
C           4.4429770    -2.2842024    -3.1369721
H           3.6846890    -3.0347357    -2.8818012
H           5.4288398    -2.7522772    -3.0481577
H           4.2784811    -1.9698421    -4.1687147
C           4.6191544     0.2760651     2.1377529
H           4.4927732     0.1888790     3.2082529
C           4.7947161     1.4134832     1.3955393
H           4.8398867     2.4600914     1.6575349
N           4.9152521     0.9993370     0.0780083
C           5.2276279     1.8625865    -1.0538726
H           4.3408353     2.0557496    -1.6583686
H           5.9789223     1.3823885    -1.6858768
H           5.6394230     2.7968324    -0.6658331
O           3.6621963    -0.0778452    -2.5507202
19
059_C6H9N3O_1-0-2-4 (150,) energy =    -473.5438652
C           5.0493089    -0.3825038     0.3885679
N           5.0619501    -0.8825757     1.6097682
N           5.0722564    -1.2416070    -0.7203390
H           5.3652302    -2.1730168    -0.4557557
C           4.5355838    -1.0630083    -1.9770727
C           4.7339732    -2.2447341    -2.9144559
H           3.8298013    -2.3635474    -3.5157977
H           4.9557547    -3.1852983    -2.4008699
H           5.5603380    -2.0237787    -3.5998650
C           5.1535803     0.2089093     2.4403012
H           5.1696762     0.0965226     3.5157534
C           5.2125694     1.3627947     1.7077781
H           5.2728944     2.4046973     1.9847227
N           5.1630367     0.9817629     0.3733205
C           5.3497799     1.8979023    -0.7485383
H           4.4326482     2.0057363    -1.3254666
H           6.1331008     1.5241704    -1.4130214
H           5.6649813     2.8607247    -0.3411747
O           3.9737103    -0.0381982    -2.3351774
19
059_C6H9N3O_1-0-2-4 (165,) energy =    -473.5421938
C           5.0394526    -0.3896883     0.3629412
N           5.1047904    -0.9131930     1.5740327
N           4.9695173    -1.2648757    -0.7319776
H           5.1387568    -2.2127412    -0.4206579
C           4.6318166    -1.0730354    -2.0511361
C           4.7410904    -2.3276494    -2.9059948
H           3.8972277    -2.3477906    -3.5995182
H           4.7585651    -3.2572660    -2.3288047
H           5.6588840    -2.2742773    -3.5027616
C           5.2435305     0.1580604     2.4226594
H           5.3124221     0.0219695     3.4932226
C           5.2744761     1.3247908     1.7118415
H           5.3632968     2.3598770     2.0056377
N           5.1545465     0.9750938     0.3708286
C           5.2529968     1.9486430    -0.7172669
H           4.3225475     2.0098658    -1.2779393
H           6.0519135     1.6740383    -1.4085610
H           5.4895720     2.9144773    -0.2660560
O           4.2911385     0.0019114    -2.5242341
19
059_C6H9N3O_1-0-2-4 (180,) energy =    -473.5414273
C           5.0857254    -0.3923867     0.3371746
N           5.1669444    -0.9433022     1.5358781
N           4.9330450    -1.2581585    -0.7576621
H           4.9192547    -2.2117118    -0.4183958
C           4.8167472    -1.0628522    -2.1124315
C           4.7119515    -2.3525076    -2.9150220
H           3.9339532    -2.2251252    -3.6719235
H           4.4863014    -3.2369579    -2.3116805
H           5.6581289    -2.5205467    -3.4414796
C           5.3123880     0.1072595     2.4081496
H           5.4029636    -0.0550624     3.4733919
C           5.3180123     1.2904698     1.7257284
H           5.4087616     2.3186291     2.0420881
N           5.1704079     0.9738396     0.3781290
C           5.1408265     1.9975411    -0.6695585
H           4.2123914     1.9521237    -1.2362393
H           5.9709606     1.8727450    -1.3642370
H           5.2220686     2.9657957    -0.1711983
O           4.8151271     0.0328098    -2.6559207
