30
118_C15H11FN2O_0-6-7-18 (-165,) energy =    -862.7868979
C           0.2672598    -1.0577730     1.2113709
H           0.5427283    -1.9865356     1.6984151
C          -1.0098720    -0.5258088     1.3584148
H          -1.7393352    -1.0422440     1.9766645
C          -1.3551266     0.6660234     0.7146900
H          -2.3532408     1.0803885     0.8294072
C           1.2306027    -0.4011181     0.4270830
C           2.5715722    -1.0346700     0.2411731
C          -0.4120182     1.3180892    -0.0795311
H          -0.6735268     2.2387067    -0.5942715
C           5.6779260     1.4592971    -1.4255992
H           6.4316813     2.1012892    -1.8715533
C           4.9583011     1.9010751    -0.3131541
H           5.1322626     2.8697785     0.1416940
C           0.8705783     0.7893604    -0.2221982
H           1.5856415     1.2981833    -0.8607268
C           3.9984656     1.0582021     0.2228440
F           3.3145440     1.4859245     1.3020377
C           3.7000374    -0.2132325    -0.2928210
C           4.4995249    -0.6609422    -1.3720773
N           4.3330488    -1.9432888    -1.9180150
H           4.6481179    -2.0814175    -2.8721072
C           5.4616476     0.1887420    -1.9433092
H           6.0532377    -0.1707121    -2.7806704
C           4.2063778    -3.1407052    -1.2169601
O           4.3072435    -4.2111300    -1.7828347
N           2.6634702    -2.2947657     0.4822014
C           3.9338667    -2.9675201     0.2763822
H           3.8910452    -3.9665154     0.7121729
H           4.7783303    -2.4180454     0.7247111
30
118_C15H11FN2O_0-6-7-18 (-150,) energy =    -862.7869436
C           0.3406064    -0.9455505     1.3441246
H           0.6647855    -1.7954984     1.9349993
C          -0.9154413    -0.3776140     1.5399184
H          -1.5768966    -0.7812962     2.3018605
C          -1.3242741     0.7092618     0.7625529
H          -2.3051756     1.1513847     0.9156375
C           1.2112915    -0.4303252     0.3716739
C           2.5391992    -1.0793249     0.1581713
C          -0.4668880     1.2258162    -0.2099812
H          -0.7801663     2.0667462    -0.8228441
C           5.6930705     1.4719458    -1.3168169
H           6.4605290     2.1301264    -1.7130127
C           4.9150970     1.8879054    -0.2342303
H           5.0538987     2.8508502     0.2443245
C           0.7953070     0.6645748    -0.3996641
H           1.4543129     1.0697095    -1.1622982
C           3.9390029     1.0271575     0.2399342
F           3.1983654     1.4339035     1.2882106
C           3.6838702    -0.2416341    -0.3069514
C           4.5335476    -0.6584447    -1.3609678
N           4.3952281    -1.9231219    -1.9530118
H           4.7545200    -2.0307552    -2.8953078
C           5.5139825     0.2102355    -1.8691309
H           6.1457078    -0.1261612    -2.6865452
C           4.2209844    -3.1439396    -1.3050127
O           4.3378736    -4.1935217    -1.9060809
N           2.6086325    -2.3471095     0.3619636
C           3.8812685    -3.0251859     0.1787483
H           3.8111586    -4.0397629     0.5729959
H           4.7091377    -2.5016418     0.6853793
30
118_C15H11FN2O_0-6-7-18 (-135,) energy =    -862.7855701
C           0.4262102    -0.7991049     1.4539247
H           0.8140391    -1.5482255     2.1366142
C          -0.8078499    -0.1949051     1.6847659
H          -1.3848799    -0.4661552     2.5648061
C          -1.3006331     0.7591795     0.7911810
H          -2.2639663     1.2288445     0.9713404
C           1.1834937    -0.4546111     0.3260582
C           2.5054546    -1.1114297     0.0934696
C          -0.5496240     1.1110384    -0.3318321
H          -0.9288309     1.8504829    -1.0321152
C           5.6998532     1.4848157    -1.2029254
H           6.4794706     2.1542153    -1.5540896
C           4.8745377     1.8750377    -0.1462311
H           4.9872422     2.8297079     0.3551637
C           0.6916913     0.5168540    -0.5566190
H           1.2761729     0.7975006    -1.4288346
C           3.8841352     1.0011004     0.2707320
F           3.0990675     1.3852777     1.2942253
C           3.6624739    -0.2602183    -0.3082791
C           4.5535969    -0.6485170    -1.3394443
N           4.4368093    -1.8951652    -1.9730582
H           4.8343220    -1.9745429    -2.9027433
C           5.5497345     0.2344693    -1.7887055
H           6.2140744    -0.0806441    -2.5885530
C           4.2300706    -3.1353990    -1.3733806
O           4.3656222    -4.1645364    -2.0052752
N           2.5593712    -2.3837917     0.2655106
C           3.8338112    -3.0658453     0.0987347
H           3.7427541    -4.0929731     0.4542094
H           4.6451267    -2.5666083     0.6542303
30
118_C15H11FN2O_0-6-7-18 (-120,) energy =    -862.7831982
C           0.5512243    -0.6494606     1.5248832
H           1.0141556    -1.2728128     2.2836751
C          -0.6672596    -0.0194687     1.7722915
H          -1.1535731    -0.1448490     2.7360392
C          -1.2601159     0.7733239     0.7869253
H          -2.2112992     1.2622316     0.9799100
C           1.1875168    -0.4960669     0.2870363
C           2.5078245    -1.1575752     0.0346425
C          -0.6248117     0.9401091    -0.4448454
H          -1.0814194     1.5554478    -1.2155035
C           5.7261428     1.4897325    -1.0856948
H           6.5108167     2.1742215    -1.3937818
C           4.8781240     1.8372473    -0.0321006
H           4.9769286     2.7718525     0.5084842
C           0.6014265     0.3209917    -0.6880286
H           1.0996572     0.4601693    -1.6440870
C           3.8818022     0.9461030     0.3297056
F           3.0768790     1.2908402     1.3517379
C           3.6760373    -0.2937639    -0.3003225
C           4.5872523    -0.6378947    -1.3303794
N           4.4827786    -1.8533544    -2.0232385
H           4.8998445    -1.8902885    -2.9469732
C           5.5907111     0.2635507    -1.7234375
H           6.2706505    -0.0179671    -2.5227423
C           4.2459596    -3.1198244    -1.4944221
O           4.3834021    -4.1161500    -2.1767224
N           2.5445002    -2.4360771     0.1454114
C           3.8171963    -3.1223060    -0.0306391
H           3.7087719    -4.1650991     0.2699064
H           4.6189392    -2.6593203     0.5680722
30
118_C15H11FN2O_0-6-7-18 (-105,) energy =    -862.7806283
C           0.6706053    -0.4199501     1.5845846
H           1.2247524    -0.8474967     2.4147409
C          -0.5583264     0.2005635     1.8048270
H          -0.9598077     0.2577217     2.8130934
C          -1.2699961     0.7488227     0.7355206
H          -2.2285505     1.2307189     0.9085878
C           1.1957279    -0.5058610     0.2904315
C           2.5203371    -1.1717145     0.0365218
C          -0.7449443     0.6777542    -0.5555294
H          -1.2934245     1.1015589    -1.3925616
C           5.7721833     1.4854207    -0.9632196
H           6.5633142     2.1741445    -1.2441058
C           4.9424792     1.7848166     0.1191836
H           5.0626898     2.6859453     0.7099155
C           0.4885356     0.0629534    -0.7754125
H           0.8981043     0.0111781    -1.7810324
C           3.9382612     0.8887967     0.4446748
F           3.1554562     1.1863054     1.4990773
C           3.7045079    -0.3106502    -0.2495394
C           4.5978983    -0.6090474    -1.3096540
N           4.4660802    -1.7803802    -2.0712208
H           4.8779388    -1.7701692    -2.9980063
C           5.6101367     0.2982500    -1.6649718
H           6.2755154     0.0516317    -2.4877178
C           4.2162749    -3.0724068    -1.6148161
O           4.3374084    -4.0292660    -2.3542008
N           2.5306935    -2.4534902     0.0619080
C           3.7916745    -3.1523291    -0.1526288
H           3.6639173    -4.2081749     0.0886026
H           4.6017291    -2.7381041     0.4697182
30
118_C15H11FN2O_0-6-7-18 (-90,) energy =    -862.7789729
C           0.7621015    -0.1011614     1.5923826
H           1.3908510    -0.2846942     2.4567418
C          -0.4921599     0.4870418     1.7570062
H          -0.8300230     0.7594724     2.7533784
C          -1.3103455     0.7239018     0.6512085
H          -2.2859018     1.1843779     0.7826616
C           1.2068240    -0.4691971     0.3176216
C           2.5359327    -1.1420240     0.0815447
C          -0.8714631     0.3620464    -0.6231694
H          -1.5040238     0.5361389    -1.4895566
C           5.8367292     1.4877860    -0.8513338
H           6.6361296     2.1720646    -1.1190939
C           5.0623549     1.7327659     0.2839472
H           5.2344118     2.5856532     0.9308021
C           0.3803061    -0.2311201    -0.7883756
H           0.7170577    -0.5238288    -1.7792369
C           4.0462639     0.8436179     0.5901905
F           3.3236817     1.0883578     1.7015399
C           3.7426544    -0.2963855    -0.1718105
C           4.5855821    -0.5456892    -1.2856530
N           4.3953336    -1.6604628    -2.1177202
H           4.7760555    -1.5974937    -3.0556937
C           5.6096231     0.3555897    -1.6219017
H           6.2338682     0.1455574    -2.4860087
C           4.1418523    -2.9753692    -1.7346442
O           4.2260045    -3.8863949    -2.5344153
N           2.5130600    -2.4208050     0.0042964
C           3.7539944    -3.1344991    -0.2691651
H           3.6063584    -4.1992562    -0.0855469
H           4.5865834    -2.7737267     0.3563854
30
118_C15H11FN2O_0-6-7-18 (-75,) energy =    -862.7779687
C           0.8152647     0.1552065     1.5426373
H           1.4855881     0.1949167     2.3904772
C          -0.4574240     0.7190040     1.6467880
H          -0.7517804     1.2022277     2.5747491
C          -1.3488498     0.6604215     0.5754988
H          -2.3360989     1.1067800     0.6601640
C           1.2083886    -0.4892742     0.3625846
C           2.5428373    -1.1605623     0.1529014
C          -0.9674623     0.0151927    -0.6019497
H          -1.6562501    -0.0469169    -1.4402793
C           5.8982163     1.4314799    -0.7211125
H           6.7059810     2.1097877    -0.9785509
C           5.1997150     1.6024569     0.4746035
H           5.4418692     2.3882357     1.1812852
C           0.2976499    -0.5605880    -0.7037477
H           0.5896265    -1.0782720    -1.6124133
C           4.1690330     0.7245990     0.7653051
F           3.5305638     0.8951937     1.9421970
C           3.7724658    -0.3303806    -0.0698891
C           4.5518986    -0.5192623    -1.2411670
N           4.2912806    -1.5706073    -2.1364196
H           4.6347602    -1.4538435    -3.0836864
C           5.5878071     0.3729740    -1.5638063
H           6.1584423     0.2105699    -2.4740156
C           4.0609518    -2.9077489    -1.8176303
O           4.1160787    -3.7733504    -2.6684184
N           2.5007125    -2.4314100    -0.0116126
C           3.7244649    -3.1443626    -0.3493447
H           3.5691846    -4.2156796    -0.2174796
H           4.5817484    -2.8259983     0.2658316
30
118_C15H11FN2O_0-6-7-18 (-60,) energy =    -862.7781067
C           0.8708080     0.4263944     1.3749274
H           1.6014680     0.6959464     2.1238432
C          -0.4130988     0.9681974     1.4518076
H          -0.6526468     1.6546825     2.2596800
C          -1.3847959     0.6301584     0.5102173
H          -2.3810409     1.0599891     0.5723704
C           1.2017349    -0.4736476     0.3511740
C           2.5361705    -1.1501272     0.1818702
C          -1.0680432    -0.2692782    -0.5091679
H          -1.8159510    -0.5457983    -1.2475828
C           5.9311479     1.4212440    -0.5920657
H           6.7443214     2.1020286    -0.8246235
C           5.2986741     1.4914589     0.6501712
H           5.6044657     2.1930103     1.4182025
C           0.2084317    -0.8216802    -0.5816376
H           0.4530892    -1.5337549    -1.3624832
C           4.2578272     0.6147667     0.9067756
F           3.6973958     0.6624938     2.1373476
C           3.7807253    -0.3289892    -0.0121317
C           4.5136767    -0.4440484    -1.2199659
N           4.2068630    -1.4402242    -2.1634911
H           4.5132348    -1.2760614    -3.1164741
C           5.5569561     0.4498677    -1.5112191
H           6.0880551     0.3521898    -2.4540370
C           4.0016706    -2.7939283    -1.8968871
O           4.0338999    -3.6201020    -2.7869898
N           2.4950195    -2.4142544    -0.0345139
C           3.7142927    -3.1030378    -0.4284741
H           3.5699003    -4.1806009    -0.3438009
H           4.5875585    -2.8075360     0.1753769
30
118_C15H11FN2O_0-6-7-18 (-45,) energy =    -862.7793942
C           0.9437849     0.6083813     1.1648710
H           1.7329449     1.0276998     1.7720093
C          -0.3379709     1.1520833     1.2587037
H          -0.5126147     1.9882018     1.9307350
C          -1.3888596     0.6281946     0.5065659
H          -2.3838745     1.0592198     0.5794278
C           1.1973094    -0.4782818     0.3131501
C           2.5296492    -1.1540089     0.1462536
C          -1.1503533    -0.4554588    -0.3409440
H          -1.9584210    -0.8738006    -0.9351886
C           5.9746436     1.3913369    -0.4828350
H           6.8026796     2.0663446    -0.6767048
C           5.3377289     1.4087947     0.7591354
H           5.6560315     2.0611729     1.5645622
C           0.1251994    -1.0051317    -0.4312011
H           0.3138317    -1.8518802    -1.0812896
C           4.2781398     0.5406839     0.9644981
F           3.7077814     0.5338447     2.1927211
C           3.7832997    -0.3369247    -0.0078892
C           4.5256401    -0.4116367    -1.2120415
N           4.2141605    -1.3701228    -2.1925415
H           4.5223829    -1.1750976    -3.1390555
C           5.5872089     0.4754342    -1.4526437
H           6.1249634     0.4124901    -2.3946100
C           4.0052941    -2.7311136    -1.9684548
O           4.0349453    -3.5295340    -2.8835860
N           2.4974589    -2.4147194    -0.0965794
C           3.7179002    -3.0873994    -0.5089104
H           3.5764946    -4.1675845    -0.4593805
H           4.5905968    -2.8100620     0.1043396
30
118_C15H11FN2O_0-6-7-18 (-30,) energy =    -862.7808841
C           0.9736826     0.7317899     0.9395803
H           1.8074469     1.2633061     1.3748677
C          -0.3040839     1.2764176     1.0739579
H          -0.4279449     2.2188233     1.6008310
C          -1.4136855     0.6201536     0.5435734
H          -2.4064543     1.0502070     0.6464696
C           1.1668092    -0.4861805     0.2685119
C           2.4990077    -1.1523518     0.0779463
C          -1.2360584    -0.5938559    -0.1242313
H          -2.0907153    -1.1148757    -0.5475816
C           5.9881268     1.3717167    -0.3586002
H           6.8329754     2.0392120    -0.4986125
C           5.3124501     1.3513581     0.8626332
H           5.6142972     1.9671026     1.7025313
C           0.0359910    -1.1407577    -0.2566308
H           0.1801247    -2.0831662    -0.7719089
C           4.2326070     0.4941409     0.9994556
F           3.6114402     0.4565829     2.2011725
C           3.7564694    -0.3347953    -0.0235465
C           4.5346871    -0.3748478    -1.2058046
N           4.2403588    -1.2930764    -2.2293895
H           4.5716204    -1.0665762    -3.1609735
C           5.6167596     0.5030575    -1.3774349
H           6.1835509     0.4685594    -2.3037029
C           4.0203468    -2.6595468    -2.0566294
O           4.0651057    -3.4270817    -2.9971305
N           2.4787527    -2.4070423    -0.1989111
C           3.7043791    -3.0646576    -0.6148931
H           3.5618299    -4.1458590    -0.6059166
H           4.5668238    -2.8110277     0.0228110
30
118_C15H11FN2O_0-6-7-18 (-15,) energy =    -862.7828456
C           0.9905232     0.7986242     0.6976615
H           1.8570488     1.4131852     0.9010617
C          -0.2751460     1.3530593     0.8919287
H          -0.3600462     2.3737959     1.2549501
C          -1.4213340     0.6067055     0.6243680
H          -2.4059762     1.0410069     0.7758583
C           1.1349673    -0.5146910     0.2238060
C           2.4607568    -1.1805897     0.0053021
C          -1.2920489    -0.7034936     0.1551548
H          -2.1775092    -1.2951635    -0.0616388
C           5.9759715     1.3273246    -0.2035623
H           6.8327000     1.9900645    -0.2797993
C           5.2395664     1.2778923     0.9816751
H           5.5028602     1.8676262     1.8526314
C          -0.0318373    -1.2577292    -0.0391066
H           0.0763088    -2.2738950    -0.3997000
C           4.1466131     0.4278717     1.0378088
F           3.4555250     0.3623746     2.1966544
C           3.7207838    -0.3672638    -0.0342032
C           4.5526107    -0.3766339    -1.1787872
N           4.2972118    -1.2551134    -2.2458220
H           4.6686485    -0.9992118    -3.1543105
C           5.6491838     0.4959362    -1.2679512
H           6.2607412     0.4869364    -2.1659107
C           4.0466022    -2.6222934    -2.1335468
O           4.1144413    -3.3546209    -3.1003280
N           2.4412795    -2.4247659    -0.3177008
C           3.6735596    -3.0766948    -0.7202575
H           3.5215483    -4.1560472    -0.7580327
H           4.5157924    -2.8569590    -0.0438827
30
118_C15H11FN2O_0-6-7-18 (0,) energy =    -862.7851522
C           1.0068976     0.8385594     0.4626797
H           1.8809736     1.4790754     0.4517365
C          -0.2418863     1.4108716     0.7060340
H          -0.3108555     2.4765883     0.9067840
C          -1.3921937     0.6234759     0.6913680
H          -2.3640097     1.0700222     0.8843997
C           1.1266934    -0.5322799     0.1880970
C           2.4411574    -1.1985717    -0.0764597
C          -1.2855073    -0.7444595     0.4233974
H          -2.1754294    -1.3681088     0.4085312
C           5.9676351     1.2962632    -0.0847035
H           6.8300121     1.9557278    -0.1067302
C           5.1689068     1.2368346     1.0594152
H           5.3861829     1.8172709     1.9490943
C          -0.0420015    -1.3159430     0.1775796
H           0.0507419    -2.3759683    -0.0287037
C           4.0713814     0.3913127     1.0472898
F           3.3154464     0.3206090     2.1620702
C           3.7043910    -0.3949464    -0.0546470
C           4.5883845    -0.3847369    -1.1593961
N           4.3756139    -1.2277182    -2.2624531
H           4.7923425    -0.9480951    -3.1438666
C           5.6922537     0.4837435    -1.1774379
H           6.3469246     0.4888852    -2.0444897
C           4.0842922    -2.5900573    -2.2140065
O           4.1765845    -3.2856774    -3.2056031
N           2.4094915    -2.4285226    -0.4508049
C           3.6429654    -3.0883194    -0.8367668
H           3.4717622    -4.1620542    -0.9229029
H           4.4621003    -2.9128485    -0.1199381
30
118_C15H11FN2O_0-6-7-18 (15,) energy =    -862.7867338
C           0.9938608     0.8595315     0.2497969
H           1.8491955     1.5020318     0.0681264
C          -0.2442708     1.4403517     0.5233426
H          -0.3323879     2.5224583     0.5698295
C          -1.3643624     0.6368218     0.7346541
H          -2.3279590     1.0893786     0.9531938
C           1.1304707    -0.5346676     0.1726042
C           2.4319135    -1.1958890    -0.1489596
C          -1.2396290    -0.7536367     0.6626870
H          -2.1072059    -1.3869635     0.8278075
C           5.9731060     1.2693544     0.0235401
H           6.8426933     1.9192041     0.0492906
C           5.1172104     1.2110519     1.1255567
H           5.2938787     1.7858105     2.0277886
C          -0.0063885    -1.3337302     0.3836568
H           0.1003901    -2.4109250     0.3218243
C           4.0129622     0.3775173     1.0535012
F           3.1975648     0.3161576     2.1245432
C           3.6977013    -0.4045689    -0.0687147
C           4.6278189    -0.3834215    -1.1355427
N           4.4484685    -1.1900933    -2.2709325
H           4.9091624    -0.8920120    -3.1239612
C           5.7407728     0.4725342    -1.0904269
H           6.4330896     0.4839538    -1.9276454
C           4.1221888    -2.5449684    -2.2844175
O           4.2396469    -3.2072698    -3.2961334
N           2.3849458    -2.4107810    -0.5684852
C           3.6154820    -3.0821517    -0.9462628
H           3.4220628    -4.1470847    -1.0814462
H           4.4125477    -2.9566552    -0.1946173
30
118_C15H11FN2O_0-6-7-18 (30,) energy =    -862.7870469
C           0.9404196     0.8453055     0.0430909
H           1.7606348     1.4701660    -0.2984095
C          -0.2895422     1.4283344     0.3456261
H          -0.4152806     2.5029859     0.2441179
C          -1.3548006     0.6347922     0.7733250
H          -2.3115997     1.0899538     1.0153054
C           1.1200733    -0.5409367     0.1583291
C           2.4050042    -1.1984910    -0.2254091
C          -1.1858646    -0.7477742     0.8878814
H          -2.0112191    -1.3714338     1.2210115
C           5.9671485     1.2168873     0.1083018
H           6.8432176     1.8548983     0.1769428
C           5.0687586     1.1555345     1.1757659
H           5.2173318     1.7180120     2.0907293
C           0.0387731    -1.3321206     0.5767613
H           0.1778680    -2.4053148     0.6503311
C           3.9571935     0.3385814     1.0509334
F           3.0995367     0.2801977     2.0874773
C           3.6788571    -0.4313764    -0.0905201
C           4.6435307    -0.3971490    -1.1272311
N           4.4870109    -1.1624224    -2.2930312
H           4.9813263    -0.8437492    -3.1192723
C           5.7654341     0.4427684    -1.0271572
H           6.4855070     0.4625928    -1.8405618
C           4.1102332    -2.5011187    -2.3776512
O           4.2297419    -3.1192805    -3.4169033
N           2.3317010    -2.3939672    -0.6936197
C           3.5533283    -3.0805397    -1.0793139
H           3.3341090    -4.1324890    -1.2665406
H           4.3337350    -3.0108872    -0.3032779
30
118_C15H11FN2O_0-6-7-18 (45,) energy =    -862.7858813
C           0.8582715     0.8280906    -0.1748719
H           1.6185785     1.4160913    -0.6821319
C          -0.3696076     1.4076441     0.1430661
H          -0.5605548     2.4448944    -0.1188434
C          -1.3516982     0.6554478     0.7896374
H          -2.3064681     1.1084164     1.0432149
C           1.1172098    -0.5111005     0.1492582
C           2.3885111    -1.1722920    -0.2738117
C          -1.1047147    -0.6829511     1.1056011
H          -1.8673927    -1.2741047     1.6054754
C           5.9731242     1.1839030     0.1959808
H           6.8563111     1.8071764     0.2994481
C           5.0383981     1.1283315     1.2319965
H           5.1633175     1.6815981     2.1559957
C           0.1166383    -1.2663865     0.7766522
H           0.3112347    -2.3103477     0.9995818
C           3.9188062     0.3306756     1.0630605
F           3.0261876     0.2804689     2.0694070
C           3.6695030    -0.4304119    -0.0918605
C           4.6645460    -0.3949413    -1.1001006
N           4.5284693    -1.1305284    -2.2869852
H           5.0510080    -0.8028910    -3.0920810
C           5.7957460     0.4254610    -0.9538959
H           6.5402406     0.4451167    -1.7449425
C           4.1096816    -2.4517779    -2.4244363
O           4.2356686    -3.0395357    -3.4806193
N           2.2921399    -2.3530284    -0.7719253
C           3.5049270    -3.0566300    -1.1606334
H           3.2621687    -4.0953413    -1.3882307
H           4.2678619    -3.0346760    -0.3647153
30
118_C15H11FN2O_0-6-7-18 (60,) energy =    -862.7835588
C           0.7542374     0.7567803    -0.3884685
H           1.4327191     1.2844547    -1.0540504
C          -0.4743100     1.3257897    -0.0521401
H          -0.7502252     2.2944337    -0.4602912
C          -1.3489722     0.6482268     0.7987490
H          -2.3040785     1.0931813     1.0648871
C           1.1198412    -0.4941312     0.1252149
C           2.3856652    -1.1567797    -0.3241691
C          -0.9963975    -0.6068249     1.3008756
H          -1.6776650    -1.1418547     1.9571077
C           5.9993570     1.1151935     0.3044577
H           6.8907504     1.7182840     0.4489619
C           5.0383509     1.0450003     1.3151585
H           5.1500745     1.5674783     2.2585513
C           0.2245848    -1.1820220     0.9540509
H           0.4955641    -2.1668943     1.3214352
C           3.9091461     0.2740704     1.0948292
F           2.9921311     0.2097534     2.0780536
C           3.6756953    -0.4484055    -0.0880852
C           4.6937344    -0.3953364    -1.0728446
N           4.5671325    -1.0797461    -2.2910640
H           5.1161642    -0.7308816    -3.0691760
C           5.8360043     0.3979632    -0.8736211
H           6.5983506     0.4311090    -1.6470255
C           4.1186550    -2.3823112    -2.4953698
O           4.2534484    -2.9265601    -3.5736721
N           2.2686547    -2.3124726    -0.8706177
C           3.4720010    -3.0271487    -1.2735323
H           3.2072983    -4.0475464    -1.5533056
H           4.2183162    -3.0618041    -0.4626586
30
118_C15H11FN2O_0-6-7-18 (75,) energy =    -862.7809814
C           0.6310170     0.6286771    -0.6069737
H           1.2123459     1.0405636    -1.4280726
C          -0.5953649     1.2008972    -0.2655693
H          -0.9652328     2.0569922    -0.8235393
C          -1.3473584     0.6685304     0.7824087
H          -2.3016618     1.1141485     1.0502594
C           1.1172660    -0.4773951     0.0997074
C           2.3858611    -1.1506672    -0.3458431
C          -0.8733186    -0.4443680     1.4808223
H          -1.4588779    -0.8689006     2.2919684
C           6.0168220     1.0575414     0.4029951
H           6.9114632     1.6481012     0.5761368
C           5.0509179     0.9508930     1.4057439
H           5.1617595     1.4316557     2.3711594
C           0.3472558    -1.0214302     1.1342012
H           0.7108326    -1.8958455     1.6655109
C           3.9184551     0.1969675     1.1482730
F           2.9991398     0.0945059     2.1267768
C           3.6838704    -0.4733885    -0.0645314
C           4.7068781    -0.3851422    -1.0420949
N           4.5827788    -1.0129308    -2.2907775
H           5.1411070    -0.6356486    -3.0487486
C           5.8535702     0.3910735    -0.8043057
H           6.6193072     0.4515266    -1.5727103
C           4.1194023    -2.2982718    -2.5594635
O           4.2564997    -2.7935716    -3.6608542
N           2.2547297    -2.2718313    -0.9537756
C           3.4518285    -2.9887594    -1.3751905
H           3.1736123    -3.9909401    -1.7032029
H           4.1879607    -3.0711374    -0.5588024
30
118_C15H11FN2O_0-6-7-18 (90,) energy =    -862.7792320
C           0.5158696     0.4096986    -0.7988765
H           1.0044448     0.6360844    -1.7429020
C          -0.7069084     1.0040576    -0.4853547
H          -1.1635819     1.6986308    -1.1854041
C          -1.3446882     0.6979898     0.7175107
H          -2.2983539     1.1580403     0.9622817
C           1.1189341    -0.4875470     0.0915436
C           2.3967000    -1.1704782    -0.3269568
C          -0.7564874    -0.2089359     1.6009066
H          -1.2533510    -0.4611914     2.5339652
C           6.0341914     1.0049275     0.5056962
H           6.9272087     1.5922799     0.6968304
C           5.0951921     0.8178152     1.5218052
H           5.2258123     1.2302314     2.5159282
C           0.4671234    -0.8014970     1.2893816
H           0.9168517    -1.5107295     1.9764442
C           3.9643637     0.0705012     1.2402683
F           3.0768424    -0.1144196     2.2376103
C           3.7012502    -0.5160498    -0.0086492
C           4.7014624    -0.3520930    -1.0010240
N           4.5591016    -0.8987226    -2.2859236
H           5.1038457    -0.4684713    -3.0253986
C           5.8466498     0.4185749    -0.7386781
H           6.5929544     0.5370229    -1.5193811
C           4.1122304    -2.1730271    -2.6268712
O           4.2455800    -2.5997438    -3.7569001
N           2.2641307    -2.2402727    -1.0193863
C           3.4601020    -2.9353804    -1.4792240
H           3.1818365    -3.9187528    -1.8596991
H           4.2017876    -3.0586183    -0.6733680
30
118_C15H11FN2O_0-6-7-18 (105,) energy =    -862.7781511
C           0.4055276     0.1447937    -0.9196572
H           0.8143359     0.1614842    -1.9256548
C          -0.8194488     0.7546429    -0.6536398
H          -1.3566212     1.2562511    -1.4542120
C          -1.3583521     0.7081232     0.6330765
H          -2.3156007     1.1776592     0.8434954
C           1.1232754    -0.4999353     0.0994751
C           2.4080300    -1.1860389    -0.2950538
C          -0.6663917     0.0421577     1.6448547
H          -1.0885596    -0.0194970     2.6444663
C           6.0776271     0.9307350     0.5898366
H           6.9746276     1.5089168     0.7898590
C           5.1842132     0.6504561     1.6245552
H           5.3552274     0.9782459     2.6437402
C           0.5662106    -0.5580575     1.3831603
H           1.0806264    -1.0875079     2.1746373
C           4.0460046    -0.0809822     1.3305287
F           3.2113862    -0.3575911     2.3538004
C           3.7261294    -0.5624102     0.0516415
C           4.6888647    -0.3151316    -0.9622354
N           4.5066524    -0.7701117    -2.2786099
H           5.0243336    -0.2827301    -3.0019461
C           5.8399541     0.4421859    -0.6873910
H           6.5531898     0.6248943    -1.4863703
C           4.0842581    -2.0330996    -2.6873319
O           4.2027957    -2.3911335    -3.8424529
N           2.2752874    -2.2031341    -1.0637887
C           3.4668775    -2.8686908    -1.5721050
H           3.1890162    -3.8323585    -2.0002728
H           4.2252211    -3.0276592    -0.7883129
30
118_C15H11FN2O_0-6-7-18 (120,) energy =    -862.7780733
C           0.2922132    -0.2325167    -0.9770980
H           0.5948729    -0.5124161    -1.9804864
C          -0.9123729     0.4345488    -0.7667547
H          -1.5437932     0.6840235    -1.6153836
C          -1.3050618     0.7790336     0.5275734
H          -2.2455379     1.2970089     0.6958363
C           1.1337494    -0.5636549     0.0999092
C           2.4183497    -1.2640449    -0.2552027
C          -0.4804565     0.4514443     1.6037167
H          -0.7809020     0.7048574     2.6170398
C           6.0883330     0.8362736     0.6674323
H           6.9800331     1.4178831     0.8805160
C           5.2818861     0.3903922     1.7158510
H           5.5229530     0.5815101     2.7555265
C           0.7331439    -0.2055006     1.3955101
H           1.3498676    -0.4545495     2.2470679
C           4.1464717    -0.3388738     1.4050629
F           3.4110000    -0.8089864     2.4388119
C           3.7400648    -0.6415312     0.0989823
C           4.6363466    -0.2656289    -0.9327012
N           4.3961660    -0.6269076    -2.2700331
H           4.8555454    -0.0701148    -2.9827298
C           5.7809586     0.4949790    -0.6431511
H           6.4397940     0.7877949    -1.4559874
C           4.0427941    -1.8949279    -2.7315153
O           4.1414691    -2.1837735    -3.9074199
N           2.3077481    -2.2463627    -1.0733099
C           3.5126400    -2.8283887    -1.6443007
H           3.2700323    -3.7791448    -2.1200723
H           4.3056399    -2.9911559    -0.8965198
30
118_C15H11FN2O_0-6-7-18 (135,) energy =    -862.7795142
C           0.1516228    -0.4709161    -0.9367742
H           0.3585184    -0.9363238    -1.8938105
C          -1.0547392     0.1883227    -0.7182339
H          -1.7895802     0.2417320    -1.5171461
C          -1.3142072     0.7856074     0.5167182
H          -2.2541943     1.3029188     0.6897527
C           1.1266074    -0.5551043     0.0749604
C           2.4131812    -1.2423722    -0.2871286
C          -0.3522668     0.7185228     1.5242160
H          -0.5426027     1.1773248     2.4909077
C           6.1032849     0.7578611     0.7689277
H           7.0026644     1.3120347     1.0196102
C           5.2890932     0.2568136     1.7861242
H           5.5326955     0.3761206     2.8359193
C           0.8610436     0.0650013     1.3061515
H           1.5810023     0.0224167     2.1106897
C           4.1443741    -0.4355708     1.4274374
F           3.3935922    -0.9597466     2.4251739
C           3.7343966    -0.6403927     0.1044863
C           4.6415287    -0.2219345    -0.8994765
N           4.4049010    -0.5196706    -2.2532950
H           4.8635033     0.0691154    -2.9402561
C           5.7952109     0.5035860    -0.5616048
H           6.4627129     0.8333845    -1.3528927
C           4.0593815    -1.7701002    -2.7660849
O           4.1609524    -2.0119797    -3.9522590
N           2.3209912    -2.2056398    -1.1316456
C           3.5332063    -2.7522194    -1.7176722
H           3.3031778    -3.6853888    -2.2329785
H           4.3250751    -2.9377134    -0.9739451
30
118_C15H11FN2O_0-6-7-18 (150,) energy =    -862.7811318
C           0.0227595    -0.6780721    -0.8476170
H           0.1520598    -1.2918864    -1.7313934
C          -1.1886895    -0.0418467    -0.5979483
H          -2.0109775    -0.1604106    -1.2985916
C          -1.3432884     0.7559637     0.5382105
H          -2.2874581     1.2577587     0.7327638
C           1.1093997    -0.5457857     0.0383515
C           2.3977876    -1.2129990    -0.3480584
C          -0.2700225     0.9118312     1.4140840
H          -0.3739436     1.5335563     2.2993511
C           6.1055976     0.6580667     0.8670143
H           7.0144263     1.1742266     1.1612025
C           5.2491975     0.1464468     1.8434596
H           5.4664338     0.2225729     2.9030396
C           0.9473314     0.2772822     1.1643487
H           1.7539347     0.4178438     1.8694493
C           4.0940393    -0.4963341     1.4287962
F           3.2896429    -1.0178155     2.3835500
C           3.7166492    -0.6408597     0.0882608
C           4.6613162    -0.2132834    -0.8755406
N           4.4522763    -0.4573608    -2.2444810
H           4.9385309     0.1451642    -2.8997521
C           5.8258280     0.4639880    -0.4801204
H           6.5242562     0.8024959    -1.2403860
C           4.0953725    -1.6830229    -2.8063604
O           4.2168695    -1.8876635    -3.9975850
N           2.3183750    -2.1548337    -1.2187984
C           3.5346620    -2.6920506    -1.8013470
H           3.3048395    -3.6044890    -2.3527666
H           4.3101107    -2.9129329    -1.0498383
30
118_C15H11FN2O_0-6-7-18 (165,) energy =    -862.7832231
C          -0.0650547    -0.8503836    -0.7082884
H          -0.0008628    -1.5977656    -1.4904660
C          -1.2754826    -0.2338960    -0.4118912
H          -2.1666896    -0.5057095    -0.9713241
C          -1.3447325     0.7386380     0.5895040
H          -2.2896981     1.2238995     0.8189265
C           1.1063493    -0.5263282     0.0023496
C           2.3910973    -1.1719446    -0.4227804
C          -0.1868324     1.0919022     1.2802121
H          -0.2220878     1.8581507     2.0499648
C           6.0894671     0.5845749     0.9616154
H           7.0001463     1.0669101     1.3037667
C           5.1800892     0.0774273     1.8919961
H           5.3554476     0.1276579     2.9608409
C           1.0287265     0.4741187     0.9841622
H           1.9114637     0.7919074     1.5231567
C           4.0247920    -0.5219931     1.4165871
F           3.1593330    -1.0313826     2.3194936
C           3.7036295    -0.6293611     0.0570252
C           4.6928376    -0.2015010    -0.8591574
N           4.5261021    -0.3966871    -2.2410614
H           5.0492673     0.2131832    -2.8600717
C           5.8588295     0.4323960    -0.4002609
H           6.5954874     0.7718852    -1.1230627
C           4.1477605    -1.5896030    -2.8561062
O           4.2962576    -1.7547075    -4.0503758
N           2.3160802    -2.0815664    -1.3281049
C           3.5347277    -2.6191189    -1.9038742
H           3.2997709    -3.5046633    -2.4956435
H           4.2856352    -2.8867520    -1.1424227
30
118_C15H11FN2O_0-6-7-18 (180,) energy =    -862.7855079
C          -0.0992390    -0.9807001    -0.5420465
H          -0.0728167    -1.8346655    -1.2090829
C          -1.3072255    -0.3850089    -0.1963719
H          -2.2360988    -0.7831844    -0.5960614
C          -1.3285941     0.7242020     0.6542368
H          -2.2726377     1.1910573     0.9223875
C           1.1175698    -0.4938859    -0.0305510
C           2.3960900    -1.1200539    -0.4943189
C          -0.1279625     1.2341404     1.1459786
H          -0.1291225     2.1066552     1.7937261
C           6.0760054     0.5231106     1.0575387
H           6.9835215     0.9754758     1.4459430
C           5.1071662     0.0436304     1.9419994
H           5.2312362     0.0894639     3.0181548
C           1.0842283     0.6351913     0.8024484
H           2.0047204     1.0727415     1.1713209
C           3.9577508    -0.5185872     1.4108338
F           3.0303725    -0.9953888     2.2660312
C           3.7033669    -0.6198734     0.0351163
C           4.7431896    -0.2087104    -0.8318370
N           4.6296992    -0.3680378    -2.2223763
H           5.1981433     0.2392936    -2.8026439
C           5.9057063     0.3864848    -0.3144155
H           6.6836502     0.7113798    -0.9997305
C           4.2144744    -1.5177314    -2.8919883
O           4.3921475    -1.6462578    -4.0868814
N           2.3150403    -1.9926084    -1.4355952
C           3.5309494    -2.5520080    -1.9967093
H           3.2824045    -3.4072293    -2.6264013
H           4.2466955    -2.8742344    -1.2223536
