16
362_C7H7NO_0-4-11-9 (-165,) energy =    -400.9340230
C           1.5020442    -1.7525512    -0.0755233
H           1.6712923    -1.9282908     0.9934372
H           2.1504666    -2.4551698    -0.6080487
H           0.4539731    -1.9333942    -0.3210103
C           1.8543367    -0.3237467    -0.4257073
C           5.8471404     0.9066776     0.2803846
H           6.8830160     1.1689358     0.4739547
C           4.8840568     1.8882950     0.0456144
H           5.1511000     2.9415785     0.0536561
C           3.5724474     1.4911824    -0.1984824
H           2.7770612     2.2011046    -0.3964896
C           3.2767250     0.1228116    -0.1934273
N           4.1944061    -0.8286268     0.0467699
C           5.4514412    -0.4334540     0.2680682
H           6.1775547    -1.2241403     0.4495918
O           1.0271171     0.4706794    -0.8431133
16
362_C7H7NO_0-4-11-9 (-150,) energy =    -400.9322935
C           1.4764324    -1.7062181    -0.0094309
H           1.5072214    -1.6850565     1.0875038
H           2.1869504    -2.4752755    -0.3260223
H           0.4646767    -1.9467039    -0.3412879
C           1.8742175    -0.3487168    -0.5444832
C           5.8363596     0.9128699     0.2774806
H           6.8641580     1.1824268     0.5015543
C           4.8485217     1.8869046     0.1309944
H           5.0868507     2.9412438     0.2421944
C           3.5491031     1.4808334    -0.1601754
H           2.7398101     2.1887639    -0.3015762
C           3.2890257     0.1108273    -0.2853567
N           4.2278944    -0.8353285    -0.1181903
C           5.4751958    -0.4295393     0.1393176
H           6.2205594    -1.2152452     0.2507107
O           1.0834144     0.3999899    -1.0943982
16
362_C7H7NO_0-4-11-9 (-135,) energy =    -400.9295884
C           1.4486498    -1.6492155     0.0662975
H           1.4011312    -1.4469193     1.1443097
H           2.1694028    -2.4607844    -0.0724221
H           0.4591427    -1.9389043    -0.2928429
C           1.9051911    -0.3956669    -0.6468699
C           5.8311476     0.8957088     0.2927911
H           6.8503156     1.1710412     0.5470502
C           4.8187329     1.8526111     0.2244434
H           5.0283277     2.8989089     0.4296301
C           3.5316047     1.4406630    -0.1122363
H           2.7084919     2.1414240    -0.2034638
C           3.3093493     0.0807489    -0.3564292
N           4.2690074    -0.8539013    -0.2553682
C           5.5054658    -0.4386608     0.0384470
H           6.2705054    -1.2117535     0.0870312
O           1.1644967     0.2780173    -1.3422675
16
362_C7H7NO_0-4-11-9 (-120,) energy =    -400.9261947
C           1.4291679    -1.5869629     0.1316689
H           1.3104227    -1.2137687     1.1574001
H           2.1474704    -2.4122968     0.1715709
H           0.4632206    -1.9308901    -0.2441179
C           1.9515029    -0.4637377    -0.7374504
C           5.8374460     0.8836638     0.2963234
H           6.8487523     1.1689107     0.5701396
C           4.7946253     1.8093997     0.3097609
H           4.9715216     2.8414097     0.6003928
C           3.5190666     1.3860621    -0.0577500
H           2.6779592     2.0712424    -0.0894731
C           3.3399180     0.0455009    -0.4149012
N           4.3269311    -0.8645716    -0.3884028
C           5.5516801    -0.4344072    -0.0658826
H           6.3402235    -1.1848673    -0.0820718
O           1.2717576     0.0968748    -1.5777840
16
362_C7H7NO_0-4-11-9 (-105,) energy =    -400.9228594
C           1.3803856    -1.5070508     0.1629901
H           1.2183641    -0.9903213     1.1178880
H           2.0641264    -2.3402173     0.3617275
H           0.4277592    -1.8783411    -0.2211006
C           1.9992368    -0.5437796    -0.8263760
C           5.8409417     0.8822068     0.2836106
H           6.8455284     1.1850414     0.5629968
C           4.7646664     1.7635630     0.3819051
H           4.9087390     2.7773846     0.7456399
C           3.4984978     1.3208016     0.0039042
H           2.6346436     1.9775550     0.0434481
C           3.3644749     0.0066738    -0.4548984
N           4.3840323    -0.8630552    -0.5161853
C           5.5975818    -0.4137222    -0.1739150
H           6.4116124    -1.1318168    -0.2570891
O           1.4250047    -0.1524108    -1.8240607
16
362_C7H7NO_0-4-11-9 (-90,) energy =    -400.9206699
C           1.2958857    -1.3991625     0.1875361
H           1.1005776    -0.7578667     1.0565452
H           1.9126365    -2.2345235     0.5414109
H           0.3536407    -1.7741447    -0.2181802
C           2.0462161    -0.6220683    -0.8725771
C           5.8508955     0.8964656     0.2587556
H           6.8509455     1.2260745     0.5236714
C           4.7411708     1.7177476     0.4548523
H           4.8537577     2.7114738     0.8800493
C           3.4818400     1.2408662     0.0953864
H           2.5927993     1.8520424     0.2228417
C           3.3893684    -0.0412178    -0.4549614
N           4.4448833    -0.8491289    -0.6291321
C           5.6475644    -0.3730821    -0.2835436
H           6.4882690    -1.0457920    -0.4445255
O           1.6149053    -0.4368172    -1.9926718
16
362_C7H7NO_0-4-11-9 (-75,) energy =    -400.9203155
C           1.2173003    -1.2963430     0.2094271
H           1.0140838    -0.5451314     0.9827608
H           1.7385764    -2.1258565     0.7045326
H           0.2794813    -1.6548093    -0.2206193
C           2.1051172    -0.7302420    -0.8793404
C           5.8611293     0.9247873     0.2236921
H           6.8518388     1.2990548     0.4632468
C           4.7168421     1.6653364     0.5149823
H           4.7907477     2.6408762     0.9880366
C           3.4719041     1.1297508     0.1883308
H           2.5561166     1.6746199     0.4008041
C           3.4268256    -0.1218091    -0.4344607
N           4.5206230    -0.8422508    -0.7225298
C           5.7062307    -0.3208211    -0.3878004
H           6.5765420    -0.9304436    -0.6251349
O           1.8166246    -0.7734355    -2.0576975
16
362_C7H7NO_0-4-11-9 (-60,) energy =    -400.9212507
C           1.1536700    -1.1660603     0.1757431
H           0.9280704    -0.3150077     0.8292738
H           1.5764238    -1.9516955     0.8155541
H           0.2359159    -1.5305258    -0.2905538
C           2.1648144    -0.8038267    -0.8953646
C           5.8712773     0.9562550     0.2112882
H           6.8507278     1.3644744     0.4417568
C           4.7036863     1.6160371     0.5880861
H           4.7457758     2.5631581     1.1191214
C           3.4761371     1.0357801     0.2708004
H           2.5448243     1.5187022     0.5527254
C           3.4673926    -0.1734781    -0.4339245
N           4.5870982    -0.8083821    -0.8144809
C           5.7551087    -0.2531882    -0.4787826
H           6.6457552    -0.7999451    -0.7844141
O           1.9852834    -1.0433936    -2.0719858
16
362_C7H7NO_0-4-11-9 (-45,) energy =    -400.9223788
C           1.1010447    -1.0688873     0.1565291
H           0.7737115    -0.1081860     0.5719463
H           1.4735153    -1.6690102     0.9961155
H           0.2480840    -1.5704764    -0.3046911
C           2.1974213    -0.8941157    -0.8805060
C           5.8706099     0.9653349     0.1818116
H           6.8416134     1.4009882     0.3975399
C           4.6952293     1.5436916     0.6529171
H           4.7210007     2.4537527     1.2461042
C           3.4798043     0.9305410     0.3487534
H           2.5460283     1.3538680     0.7056138
C           3.4868808    -0.2286445    -0.4366882
N           4.6169097    -0.7825567    -0.9075317
C           5.7731396    -0.1996756    -0.5856509
H           6.6716331    -0.6834285    -0.9658776
O           2.0803933    -1.3051592    -2.0172291
16
362_C7H7NO_0-4-11-9 (-30,) energy =    -400.9234120
C           1.0748333    -0.9787060     0.1180286
H           0.6559704     0.0296223     0.2288782
H           1.3876806    -1.3123773     1.1142469
H           0.2956712    -1.6386895    -0.2676127
C           2.2446064    -0.9844988    -0.8546207
C           5.8798796     0.9732682     0.1655602
H           6.8403291     1.4367520     0.3704123
C           4.7041766     1.4657491     0.7241613
H           4.7170734     2.3330704     1.3786183
C           3.5031478     0.8211584     0.4273582
H           2.5710317     1.1781629     0.8531736
C           3.5219350    -0.2834726    -0.4338793
N           4.6539238    -0.7549987    -0.9843260
C           5.7966326    -0.1423226    -0.6749722
H           6.6970552    -0.5588643    -1.1241882
O           2.1751994    -1.5485892    -1.9280439
16
362_C7H7NO_0-4-11-9 (-15,) energy =    -400.9241104
C           1.0540949    -0.8911093     0.0854900
H           0.6682012     0.1342340     0.0224053
H           1.2754794    -1.0934633     1.1399383
H           0.2827168    -1.5781902    -0.2663943
C           2.2900732    -1.0654816    -0.7854580
C           5.8797514     1.0116981     0.1681994
H           6.8286715     1.5039649     0.3591806
C           4.7104650     1.4242362     0.7995376
H           4.7171170     2.2543339     1.5006447
C           3.5236718     0.7482120     0.5150816
H           2.5976052     1.0460571     0.9950711
C           3.5491956    -0.3119397    -0.4007795
N           4.6771262    -0.7080234    -1.0161205
C           5.8054694    -0.0617207    -0.7271473
H           6.7014279    -0.4142756    -1.2363339
O           2.2751260    -1.7932531    -1.7578809
16
362_C7H7NO_0-4-11-9 (0,) energy =    -400.9243242
C           1.0265078    -0.8212531     0.0181431
H           0.7230003     0.2183623    -0.1554828
H           1.1388610    -0.9537013     1.1010943
H           0.2440591    -1.4890103    -0.3459561
C           2.3191665    -1.1489521    -0.7159004
C           5.8719698     1.0326104     0.1497289
H           6.8127398     1.5476371     0.3201053
C           4.7202293     1.3748923     0.8508765
H           4.7328233     2.1703947     1.5909175
C           3.5431211     0.6744240     0.5850776
H           2.6316081     0.9219643     1.1180668
C           3.5608973    -0.3460055    -0.3753987
N           4.6736223    -0.6775641    -1.0536214
C           5.7901357    -0.0014120    -0.7904942
H           6.6715814    -0.2965481    -1.3581926
O           2.3572169    -2.0291988    -1.5522219
16
362_C7H7NO_0-4-11-9 (15,) energy =    -400.9241104
C           1.0079654    -0.7614385    -0.0533966
H           0.7879895     0.2768849    -0.3278314
H           1.0070072    -0.8181545     1.0425072
H           0.2253943    -1.4170578    -0.4389774
C           2.3436992    -1.2162305    -0.6239911
C           5.8641412     1.0555838     0.1211848
H           6.7974609     1.5917073     0.2651842
C           4.7425046     1.3341825     0.8959881
H           4.7731855     2.0967495     1.6694270
C           3.5716203     0.6134343     0.6594409
H           2.6809660     0.8117382     1.2460511
C           3.5695252    -0.3690914    -0.3395655
N           4.6541967    -0.6435781    -1.0851517
C           5.7623226     0.0595583    -0.8570571
H           6.6188858    -0.1822617    -1.4848549
O           2.4286010    -2.2246840    -1.2957755
16
362_C7H7NO_0-4-11-9 (30,) energy =    -400.9234120
C           0.9880806    -0.7348421    -0.1431711
H           0.8278122     0.2614278    -0.5714482
H           0.8942037    -0.6400547     0.9461691
H           0.2183850    -1.4214382    -0.5003065
C           2.3518140    -1.2858651    -0.5318280
C           5.8531136     1.0485089     0.0849603
H           6.7830221     1.5978447     0.1978552
C           4.7751672     1.2661991     0.9378922
H           4.8386763     1.9912522     1.7447324
C           3.6056070     0.5331481     0.7358417
H           2.7462447     0.6856434     1.3807082
C           3.5653020    -0.4053791    -0.3033093
N           4.6082243    -0.6265420    -1.1219224
C           5.7117638     0.0962416    -0.9305074
H           6.5321738    -0.0953868    -1.6206297
O           2.4733847    -2.3868029    -1.0302347
16
362_C7H7NO_0-4-11-9 (45,) energy =    -400.9223788
C           0.9702521    -0.7012258    -0.2372686
H           0.8320912     0.1340487    -0.9351335
H           0.8407378    -0.2965923     0.7737524
H           0.2098655    -1.4630451    -0.4197546
C           2.3468375    -1.3141319    -0.4306268
C           5.8369473     1.0599625     0.0804457
H           6.7638817     1.6194957     0.1634851
C           4.8154829     1.2056637     1.0149714
H           4.9243416     1.8821678     1.8583208
C           3.6454333     0.4649600     0.8474326
H           2.8284588     0.5599591     1.5559668
C           3.5522471    -0.4123918    -0.2398805
N           4.5409692    -0.5690930    -1.1361791
C           5.6430035     0.1661349    -0.9774799
H           6.4175462     0.0308060    -1.7309051
O           2.4951917    -2.4711773    -0.7683084
16
362_C7H7NO_0-4-11-9 (60,) energy =    -400.9212507
C           0.9801748    -0.6783599    -0.3466304
H           0.8956069    -0.0379023    -1.2343036
H           0.8269556    -0.0307662     0.5248251
H           0.2068156    -1.4487244    -0.3781682
C           2.3510930    -1.3274624    -0.3345012
C           5.8248196     1.0868501     0.0714007
H           6.7457364     1.6596100     0.1256287
C           4.8673625     1.1559434     1.0808859
H           5.0231495     1.7834617     1.9542471
C           3.7012291     0.4030438     0.9485190
H           2.9302056     0.4353909     1.7130552
C           3.5512637    -0.4092430    -0.1814014
N           4.4752095    -0.4938649    -1.1513655
C           5.5744181     0.2547335    -1.0228238
H           6.2972730     0.1796405    -1.8336548
O           2.5109305    -2.5210049    -0.4893206
16
362_C7H7NO_0-4-11-9 (75,) energy =    -400.9203155
C           0.9846642    -0.6424027    -0.4910070
H           1.0224211    -0.1127287    -1.4517207
H           0.7799410     0.1130393     0.2777951
H           0.1832026    -1.3841720    -0.5105011
C           2.3156939    -1.3221814    -0.2453146
C           5.8018003     1.0915697     0.0450445
H           6.7190549     1.6723225     0.0634278
C           4.9189835     1.0971225     1.1235896
H           5.1313707     1.6833927     2.0135891
C           3.7545129     0.3353388     1.0392213
H           3.0399480     0.3145736     1.8575487
C           3.5315597    -0.4162194    -0.1191205
N           4.3747188    -0.4321148    -1.1618299
C           5.4793261     0.3170103    -1.0709863
H           6.1415480     0.2923277    -1.9348509
O           2.4407264    -2.5278075    -0.1785919
16
362_C7H7NO_0-4-11-9 (90,) energy =    -400.9206699
C           1.0296672    -0.6508164    -0.6140134
H           1.1977751    -0.2250298    -1.6109499
H           0.7655148     0.1840038     0.0477126
H           0.2109489    -1.3730365    -0.6478038
C           2.2949307    -1.3212148    -0.1237224
C           5.7720909     1.1179906     0.0214718
H           6.6751720     1.7201827    -0.0055785
C           4.9771553     1.0543961     1.1653601
H           5.2456485     1.6098728     2.0599644
C           3.8292608     0.2642626     1.1414214
H           3.1877057     0.1797516     2.0140265
C           3.5303601    -0.4375496    -0.0304535
N           4.2739556    -0.3686507    -1.1437757
C           5.3758961     0.3905822    -1.1015107
H           5.9664774     0.4209720    -2.0155830
O           2.3449969    -2.4891307     0.2055571
16
362_C7H7NO_0-4-11-9 (105,) energy =    -400.9228594
C           1.0792292    -0.6604920    -0.7437539
H           1.3595499    -0.3596440    -1.7596650
H           0.7768997     0.2506655    -0.2113263
H           0.2451902    -1.3651393    -0.7707780
C           2.2621934    -1.2829611    -0.0346405
C           5.7504524     1.1365746     0.0111495
H           6.6443373     1.7505954    -0.0427762
C           5.0368190     0.9985384     1.2013144
H           5.3601782     1.5083812     2.1048593
C           3.8997362     0.1929117     1.2119797
H           3.3242897     0.0389468     2.1198833
C           3.5232018    -0.4395137     0.0230080
N           4.1776660    -0.2829594    -1.1375303
C           5.2820180     0.4733316    -1.1240437
H           5.8086164     0.5632146    -2.0726420
O           2.2087164    -2.3554530     0.5356122
16
362_C7H7NO_0-4-11-9 (120,) energy =    -400.9261947
C           1.1080737    -0.6843599    -0.8351048
H           1.4747945    -0.5213925    -1.8537727
H           0.7755478     0.2897862    -0.4530512
H           0.2679767    -1.3820583    -0.8319644
C           2.2150151    -1.2044807     0.0559575
C           5.7435412     1.1476327     0.0135769
H           6.6397616     1.7563904    -0.0591195
C           5.1019654     0.9454641     1.2351133
H           5.4846865     1.3988960     2.1454585
C           3.9590999     0.1491210     1.2671304
H           3.4366488    -0.0614437     2.1948413
C           3.5001223    -0.4048400     0.0674542
N           4.0836195    -0.1806230    -1.1209846
C           5.1985460     0.5582569    -1.1291318
H           5.6699164     0.6993753    -2.1002904
O           2.0679913    -2.1413644     0.8195896
16
362_C7H7NO_0-4-11-9 (135,) energy =    -400.9295884
C           1.1278093    -0.7473510    -0.8996817
H           1.5608835    -0.7502253    -1.9045753
H           0.7875656     0.2777496    -0.7029723
H           0.2781794    -1.4302230    -0.8377080
C           2.1648006    -1.1254341     0.1347858
C           5.7428987     1.1437780     0.0270709
H           6.6495629     1.7353700    -0.0574132
C           5.1655043     0.8778321     1.2685244
H           5.6103908     1.2627119     2.1821516
C           4.0055828     0.1082955     1.3148674
H           3.5239360    -0.1508173     2.2517665
C           3.4643855    -0.3550605     0.1103764
N           3.9908972    -0.0721248    -1.0927278
C           5.1211839     0.6415742    -1.1186008
H           5.5428812     0.8336315    -2.1037932
O           1.9504378    -1.9312420     1.0240425
16
362_C7H7NO_0-4-11-9 (150,) energy =    -400.9322935
C           1.1600595    -0.8168148    -0.9620356
H           1.6567651    -0.9859349    -1.9218288
H           0.8268224     0.2289417    -0.9627865
H           0.2966736    -1.4746478    -0.8461435
C           2.1177432    -1.0329658     0.1883758
C           5.7580176     1.1331492     0.0415607
H           6.6806527     1.6983345    -0.0508906
C           5.2340281     0.8032441     1.2916146
H           5.7384621     1.1094855     2.2040613
C           4.0497894     0.0734155     1.3471748
H           3.5994104    -0.2278909     2.2865854
C           3.4319926    -0.2907825     0.1447248
N           3.9142389     0.0466487    -1.0628427
C           5.0633551     0.7284242    -1.1009114
H           5.4425701     0.9720627    -2.0919455
O           1.8336067    -1.7083302     1.1638163
16
362_C7H7NO_0-4-11-9 (165,) energy =    -400.9340229
C           1.1904506    -0.8767039    -1.0136162
H           1.7253439    -1.2599910    -1.8880795
H           0.9274720     0.1621679    -1.2455565
H           0.2848023    -1.4578185    -0.8305107
C           2.0679999    -0.9243037     0.2175866
C           5.7647018     1.1384017     0.0321514
H           6.7024686     1.6764650    -0.0696723
C           5.2946354     0.7340816     1.2818680
H           5.8588167     0.9520434     2.1846273
C           4.0865699     0.0458986     1.3495429
H           3.6681550    -0.3040480     2.2867216
C           3.3939414    -0.2066347     0.1594160
N           3.8312736     0.1922215    -1.0467016
C           4.9978719     0.8416207    -1.0977042
H           5.3349318     1.1446232    -2.0876318
O           1.7213567    -1.4806808     1.2471080
16
362_C7H7NO_0-4-11-9 (180,) energy =    -400.9346111
C           1.2249110    -0.9483431    -1.0369545
H           1.8166683    -1.4626827    -1.8012502
H           0.9925580     0.0414882    -1.4454190
H           0.3031907    -1.4968595    -0.8345601
C           2.0119121    -0.8144393     0.2480363
C           5.7711102     1.1284072     0.0318928
H           6.7261880     1.6333996    -0.0782701
C           5.3410050     0.6564195     1.2723603
H           5.9559852     0.7850408     2.1589452
C           4.1072492     0.0170149     1.3516226
H           3.7119379    -0.3734572     2.2827472
C           3.3518816    -0.1244511     0.1814479
N           3.7580030     0.3262469    -1.0172162
C           4.9439628     0.9384964    -1.0783019
H           5.2496432     1.2947261    -2.0606637
O           1.5984288    -1.2405390     1.3146287
