14
169_C3H8N2O_10-0-2-3 (-165,) energy =    -303.8788472
N           1.2734955    -0.7715292    -0.5171836
H           1.1641060     0.1637589    -0.1443852
C           2.5253950    -1.3444546    -0.3295565
N           3.5397907    -0.4180982    -0.1342233
H           3.3723667     0.5093180    -0.5038972
C           4.9223065    -0.8711768    -0.1725402
H           4.9834893    -1.8240400     0.3542239
H           5.5566678    -0.1377478     0.3341081
H           5.2968896    -1.0226779    -1.1950402
O           2.7148668    -2.5545889    -0.3279360
C           0.0959160    -1.6207533    -0.4010428
H          -0.7510866    -1.1337511    -0.8933775
H          -0.1734393    -1.8397808     0.6422004
H           0.3068823    -2.5662536    -0.9015890
14
169_C3H8N2O_10-0-2-3 (-150,) energy =    -303.8772615
N           1.2756264    -0.7973982    -0.6648703
H           1.1905980     0.1600438    -0.3411970
C           2.5295261    -1.3634396    -0.4378439
N           3.5168928    -0.4455444    -0.1106769
H           3.3487117     0.5147792    -0.3847191
C           4.9101491    -0.8688992    -0.1423783
H           4.9699443    -1.8687248     0.2886022
H           5.5092576    -0.1795994     0.4598086
H           5.3244005    -0.9084923    -1.1598992
O           2.7319754    -2.5700221    -0.4805783
C           0.1027532    -1.6106659    -0.3548545
H          -0.7775189    -1.1752052    -0.8365849
H          -0.0834734    -1.6947874     0.7255947
H           0.2690363    -2.6118727    -0.7534873
14
169_C3H8N2O_10-0-2-3 (-135,) energy =    -303.8739473
N           1.2804958    -0.8531595    -0.8072774
H           1.2199539     0.1351331    -0.5816850
C           2.5430110    -1.3999052    -0.5446533
N           3.4923877    -0.4866641    -0.1166485
H           3.3012153     0.4938119    -0.2795618
C           4.8983889    -0.8643848    -0.1008427
H           4.9541642    -1.9223033     0.1570900
H           5.4255514    -0.2781598     0.6579723
H           5.3917909    -0.7171041    -1.0720250
O           2.7657384    -2.6008986    -0.6171960
C           0.1278271    -1.5905465    -0.2856587
H          -0.7862993    -1.2073896    -0.7482457
H           0.0353674    -1.5172738     0.8079235
H           0.2462712    -2.6408270    -0.5549940
14
169_C3H8N2O_10-0-2-3 (-120,) energy =    -303.8694894
N           1.2666532    -0.9170258    -0.9421682
H           1.2250475     0.0926693    -0.8304619
C           2.5464265    -1.4355303    -0.6631229
N           3.4471443    -0.5260925    -0.1409418
H           3.2108280     0.4562984    -0.1812094
C           4.8632004    -0.8516464    -0.0651190
H           4.9443620    -1.9350173     0.0287646
H           5.3059784    -0.3777969     0.8166658
H           5.4201382    -0.5334119    -0.9574698
O           2.8047694    -2.6243641    -0.7849813
C           0.1566339    -1.5509105    -0.2213336
H          -0.7912262    -1.2016803    -0.6408548
H           0.1708199    -1.3399553     0.8586313
H           0.2257946    -2.6301849    -0.3677408
14
169_C3H8N2O_10-0-2-3 (-105,) energy =    -303.8671252
N           1.2369379    -0.7020704    -0.9996313
H           0.9292861    -0.9217034    -1.9478701
C           2.5609577    -1.2815286    -0.9019964
N           3.4035783    -0.4639142    -0.2153590
H           3.0360656     0.4398902     0.0434181
C           4.7881074    -0.7978017     0.0535933
H           4.9478866    -1.8243904    -0.2795881
H           5.0103310    -0.7258234     1.1246771
H           5.4738006    -0.1385542    -0.4933238
O           2.8784258    -2.3541834    -1.3956478
C           0.2891360    -1.3697579    -0.0830774
H          -0.7093419    -0.9534138    -0.2458651
H           0.5781679    -1.1582004     0.9514899
H           0.2510726    -2.4603407    -0.2178166
14
169_C3H8N2O_10-0-2-3 (-90,) energy =    -303.8690813
N           1.2263161    -0.7694286    -1.0800921
H           0.8849914    -1.0988099    -1.9825519
C           2.5653670    -1.2841535    -0.9914496
N           3.3493427    -0.5127327    -0.1853222
H           2.9586696     0.3676804     0.1164614
C           4.7416622    -0.8150272     0.0803312
H           4.9464129    -1.8048070    -0.3303594
H           4.9458312    -0.8198662     1.1574377
H           5.4108234    -0.0908938    -0.4016488
O           2.9572714    -2.2667988    -1.6057611
C           0.3240955    -1.3136509    -0.0455303
H          -0.6807248    -0.9130765    -0.2086335
H           0.6607619    -0.9860423     0.9428088
H           0.2741431    -2.4126279    -0.0476523
14
169_C3H8N2O_10-0-2-3 (-75,) energy =    -303.8715492
N           1.2502810    -0.8354391    -1.1115732
H           0.9053432    -1.2206614    -1.9885687
C           2.6032063    -1.2733786    -1.0252211
N           3.3188035    -0.5907679    -0.0793603
H           2.9093761     0.2641561     0.2685275
C           4.7357366    -0.8234813     0.1244615
H           4.9660978    -1.8256959    -0.2394210
H           4.9837284    -0.7572573     1.1890911
H           5.3567961    -0.1061964    -0.4292136
O           3.0797007    -2.1252550    -1.7636915
C           0.3587102    -1.2735906    -0.0231226
H          -0.6475507    -0.8911017    -0.2175993
H           0.6979408    -0.8544980     0.9283753
H           0.3067974    -2.3675608     0.0822079
14
169_C3H8N2O_10-0-2-3 (-60,) energy =    -303.8739853
N           1.2038684    -0.8573574    -1.1821182
H           0.8391454    -1.2544613    -2.0437768
C           2.5640115    -1.2328309    -1.1294696
N           3.2488606    -0.6889291    -0.0700563
H           2.8355550     0.1240846     0.3647226
C           4.6882506    -0.8518017     0.0354033
H           4.9472109    -1.8562640    -0.3022880
H           4.9950087    -0.7310128     1.0786935
H           5.2406151    -0.1325070    -0.5852588
O           3.0886975    -1.9308232    -1.9880556
C           0.3304084    -1.1971863    -0.0507023
H          -0.6850210    -0.8629168    -0.2819216
H           0.6524359    -0.6713289     0.8523658
H           0.3048999    -2.2741922     0.1719753
14
169_C3H8N2O_10-0-2-3 (-45,) energy =    -303.8759286
N           1.2065046    -0.9263813    -1.2069353
H           0.8278189    -1.3529293    -2.0459894
C           2.5741319    -1.2314303    -1.1661897
N           3.2257567    -0.7946578    -0.0342398
H           2.7791370    -0.0569216     0.4926975
C           4.6759783    -0.8686052     0.0355553
H           4.9946912    -1.8111788    -0.4111618
H           4.9907876    -0.8403194     1.0829399
H           5.1688982    -0.0510738    -0.5089627
O           3.1399577    -1.8036197    -2.0902081
C           0.3500122    -1.1325287    -0.0373367
H          -0.6883928    -0.9722722    -0.3395205
H           0.5708378    -0.3990420     0.7455842
H           0.4395147    -2.1373825     0.3998128
14
169_C3H8N2O_10-0-2-3 (-30,) energy =    -303.8770938
N           1.1481645    -1.0217995    -1.1989003
H           0.7364829    -1.4547669    -2.0159926
C           2.5209527    -1.2567948    -1.1993963
N           3.1742635    -0.9051844    -0.0359082
H           2.7071888    -0.2533430     0.5790508
C           4.6280163    -0.9039198    -0.0046429
H           4.9830005    -1.7642732    -0.5729282
H           4.9687107    -0.9887111     1.0316392
H           5.0623856     0.0017352    -0.4509938
O           3.0939989    -1.7295361    -2.1749005
C           0.3299543    -1.0660004     0.0068690
H          -0.7220488    -1.0414762    -0.2881976
H           0.5015875    -0.1833560     0.6359676
H           0.5029970    -1.9632786     0.6179455
14
169_C3H8N2O_10-0-2-3 (-15,) energy =    -303.8772330
N           1.1840343    -1.1305153    -1.1962300
H           0.7637228    -1.5167156    -2.0292634
C           2.5612756    -1.2719734    -1.2097305
N           3.1941407    -0.9879476    -0.0138608
H           2.6939598    -0.4233787     0.6585094
C           4.6452069    -0.8973729     0.0172088
H           5.0492441    -1.6778713    -0.6282177
H           4.9960987    -1.0562157     1.0413573
H           5.0207624     0.0710541    -0.3428495
O           3.1613927    -1.6428106    -2.2136835
C           0.3600966    -1.0227456    -0.0060518
H          -0.6900725    -1.0798639    -0.3020995
H           0.4981703    -0.0537375     0.4935985
H           0.5573283    -1.8202402     0.7246260
14
169_C3H8N2O_10-0-2-3 (0,) energy =    -303.8767886
N           1.2160791    -1.2833051     0.4507484
H           0.7476915    -1.4862041     1.3202420
C           2.5909422    -1.3073481     0.5580378
N           3.2778585    -1.0561182    -0.6166146
H           2.7881051    -0.5714720    -1.3553540
C           4.7205707    -0.8828148    -0.5735003
H           5.1207621    -1.5664630     0.1756630
H           5.0206224     0.1386834    -0.2988211
H           5.1468773    -1.1265760    -1.5515434
O           3.1504357    -1.5763798     1.6172356
C           0.4360384    -1.0272525    -0.7411860
H           0.5334950     0.0099580    -1.0979048
H          -0.6192195    -1.1957273    -0.5138425
H           0.7134340    -1.7038541    -1.5606288
14
169_C3H8N2O_10-0-2-3 (15,) energy =    -303.8772334
N           1.1917085    -1.1569622     0.4872555
H           0.7304152    -1.5424565     1.2986666
C           2.5673801    -1.2871660     0.5745503
N           3.2603330    -1.0053018    -0.5881571
H           2.7911974    -0.4497964    -1.2898441
C           4.7100748    -0.9004723    -0.5432114
H           5.0852518    -1.6648947     0.1378398
H           5.0566335     0.0782564    -0.1819030
H           5.1175766    -1.0745931    -1.5436852
O           3.1161608    -1.6470163     1.6113183
C           0.4306620    -1.0631391    -0.7452864
H           0.5919095    -0.0983229    -1.2460015
H          -0.6333187    -1.1206526    -0.5036234
H           0.6676700    -1.8666225    -1.4573999
14
169_C3H8N2O_10-0-2-3 (30,) energy =    -303.8770938
N           1.1656236    -1.0395203     0.4583542
H           0.7250854    -1.4716036     1.2607337
C           2.5404731    -1.2530953     0.5211487
N           3.2388192    -0.9016544    -0.6159318
H           2.7893725    -0.2625898    -1.2568887
C           4.6923576    -0.8780158    -0.5835263
H           5.0350930    -1.7279227     0.0075432
H           5.0929048     0.0380165    -0.1268398
H           5.0794593    -0.9662080    -1.6030918
O           3.0772612    -1.7082117     1.5252411
C           0.4018964    -1.1071165    -0.7815866
H           0.5875680    -0.2275011    -1.4109409
H          -0.6622961    -1.0963742    -0.5330809
H           0.6151926    -2.0069566    -1.3759420
14
169_C3H8N2O_10-0-2-3 (45,) energy =    -303.8759286
N           1.2220695    -0.9430066     0.4680208
H           0.8133900    -1.3678488     1.2937621
C           2.5946257    -1.2271088     0.4901321
N           3.2886704    -0.7904238    -0.6163529
H           2.8545685    -0.0643794    -1.1693481
C           4.7415168    -0.8424342    -0.6217582
H           5.0545400    -1.7763517    -0.1533563
H           5.1975584    -0.0130370    -0.0632321
H           5.1016258    -0.8176314    -1.6545302
O           3.1279302    -1.7821288     1.4434982
C           0.4209996    -1.1729175    -0.7359172
H           0.6649239    -0.4431711    -1.5154690
H          -0.6319795    -1.0260619    -0.4810632
H           0.5447765    -2.1801555    -1.1589920
14
169_C3H8N2O_10-0-2-3 (60,) energy =    -303.8739853
N           1.2194647    -0.8743369     0.4424766
H           0.8232858    -1.2694036     1.2910841
C           2.5861311    -1.2290909     0.4530245
N           3.3085631    -0.6840278    -0.5805165
H           2.9025380     0.1186303    -1.0406577
C           4.7535009    -0.8254439    -0.6212168
H           5.0125301    -1.8228910    -0.2633812
H           5.2670728    -0.0924726     0.0165208
H           5.1040020    -0.7086929    -1.6510997
O           3.0830952    -1.9112143     1.3403756
C           0.4017967    -1.2377023    -0.7228143
H           0.7552403    -0.7149764    -1.6158952
H          -0.6277398    -0.9171553    -0.5395112
H           0.4023462    -2.3169125    -0.9360814
14
169_C3H8N2O_10-0-2-3 (75,) energy =    -303.8715492
N           1.2686078    -0.8522506     0.3738263
H           0.8914103    -1.2350513     1.2385140
C           2.6305003    -1.2698294     0.3508685
N           3.3764699    -0.5845244    -0.5692283
H           2.9697964     0.2608474    -0.9427458
C           4.8043494    -0.7969381    -0.7086558
H           5.0336748    -1.7922682    -0.3257212
H           5.3895662    -0.0653297    -0.1350351
H           5.0978069    -0.7360686    -1.7619824
O           3.0870043    -2.1076534     1.1175064
C           0.4323824    -1.3137904    -0.7483630
H           0.8066277    -0.8978620    -1.6880480
H          -0.5871239    -0.9453116    -0.6016999
H           0.4017338    -2.4093208    -0.8454896
14
169_C3H8N2O_10-0-2-3 (90,) energy =    -303.8690813
N           1.2450377    -0.7869168     0.3407214
H           0.8694856    -1.1136412     1.2304629
C           2.5943400    -1.2814956     0.3155857
N           3.4011364    -0.5050677    -0.4627384
H           3.0107718     0.3664764    -0.7896213
C           4.8081935    -0.7879745    -0.6643857
H           5.0097160    -1.7708078    -0.2358055
H           5.4445082    -0.0493151    -0.1604647
H           5.0594677    -0.7990818    -1.7314399
O           2.9737744    -2.2524950     0.9557023
C           0.3974287    -1.3541707    -0.7271177
H           0.7721208    -1.0300430    -1.7028394
H          -0.6195390    -0.9678704    -0.6119007
H           0.3641049    -2.4537311    -0.7168024
14
169_C3H8N2O_10-0-2-3 (105,) energy =    -303.8671252
N           1.2581566    -0.7201101     0.2601694
H           0.9125687    -0.9361780     1.1960800
C           2.5938201    -1.2797249     0.2260040
N           3.4532556    -0.4551498    -0.4308217
H           3.0837851     0.4405202    -0.7139478
C           4.8531546    -0.7697941    -0.6358064
H           5.0137131    -1.7908098    -0.2862762
H           5.5041182    -0.0951827    -0.0656779
H           5.1210351    -0.7037630    -1.6967798
O           2.9055568    -2.3429369     0.7431758
C           0.3617103    -1.4104834    -0.6906066
H           0.6926082    -1.2035367    -1.7134973
H          -0.6491466    -1.0083182    -0.5755772
H           0.3343158    -2.5003025    -0.5473654
14
169_C3H8N2O_10-0-2-3 (120,) energy =    -303.8694892
N           1.2889518    -0.9248029     0.2108632
H           1.2414860     0.0819322     0.0761674
C           2.5890333    -1.4285628     0.0051845
N           3.5023374    -0.5136394    -0.4844277
H           3.2522894     0.4660474    -0.4658442
C           4.9247436    -0.8207416    -0.4827371
H           5.0255731    -1.9029035    -0.5712091
H           5.4282202    -0.4952882     0.4383052
H           5.4078728    -0.3407890    -1.3395821
O           2.8570891    -2.6115382     0.1579387
C           0.2282418    -1.5875341    -0.5570259
H           0.3015941    -1.4011176    -1.6391164
H          -0.7453158    -1.2394040    -0.2001027
H           0.2993960    -2.6623994    -0.3819627
14
169_C3H8N2O_10-0-2-3 (135,) energy =    -303.8739444
N           1.3047413    -0.8657489     0.0752526
H           1.2388512     0.1214997    -0.1528729
C           2.5861674    -1.3950836    -0.1208806
N           3.5424542    -0.4697629    -0.5058689
H           3.3264790     0.5087847    -0.3639459
C           4.9534825    -0.8234183    -0.4468043
H           5.0332758    -1.8921279    -0.6475803
H           5.4039699    -0.6182801     0.5346102
H           5.5041047    -0.2688717    -1.2129905
O           2.8218041    -2.5924107    -0.0307014
C           0.1892033    -1.6208305    -0.4985256
H           0.1503921    -1.5547119    -1.5957894
H          -0.7516145    -1.2469637    -0.0843713
H           0.3070988    -2.6680448    -0.2172169
14
169_C3H8N2O_10-0-2-3 (150,) energy =    -303.8772628
N           1.3140549    -0.8211953    -0.0648308
H           1.2303900     0.1347971    -0.3929227
C           2.5858043    -1.3693414    -0.2229920
N           3.5754971    -0.4379539    -0.5016957
H           3.3780083     0.5216655    -0.2456560
C           4.9718742    -0.8379935    -0.3999340
H           5.0584659    -1.8556762    -0.7815732
H           5.3482722    -0.8250361     0.6329407
H           5.5856777    -0.1691882    -1.0106962
O           2.8027036    -2.5728534    -0.1644059
C           0.1701926    -1.6515408    -0.4322258
H           0.0423659    -1.7425039    -1.5206080
H          -0.7399195    -1.2258989     0.0003044
H           0.3281483    -2.6488768    -0.0206705
14
169_C3H8N2O_10-0-2-3 (165,) energy =    -303.8788477
N           1.3123748    -0.7886395    -0.2128003
H           1.2092284     0.1418593    -0.5989096
C           2.5807720    -1.3430530    -0.3296420
N           3.5896502    -0.4026569    -0.4861976
H           3.3898265     0.5244542    -0.1318092
C           4.9748935    -0.8341723    -0.3683189
H           5.0803216    -1.7882830    -0.8857359
H           5.2942322    -0.9751142     0.6742291
H           5.6247204    -0.0929936    -0.8429802
O           2.7887036    -2.5499247    -0.3072731
C           0.1560857    -1.6588349    -0.3766613
H          -0.0472507    -1.9083081    -1.4279422
H          -0.7252035    -1.1721866     0.0515222
H           0.3490703    -2.5881473     0.1602287
14
169_C3H8N2O_10-0-2-3 (180,) energy =    -303.8784416
N           1.2700547    -0.7704271    -0.3515796
H           1.1428408     0.1627840     0.0152200
C           2.5256878    -1.3388876    -0.2241434
N           3.5514276    -0.4069603    -0.1486286
H           3.3681684     0.4874395    -0.5845969
C           4.9285917    -0.8716818    -0.2060791
H           5.0148575    -1.7691440     0.4076374
H           5.5885059    -0.0967562     0.1954115
H           5.2537327    -1.1262687    -1.2250433
O           2.7151945    -2.5495465    -0.2002783
C           0.0957089    -1.6198310    -0.4424888
H          -0.7037034    -1.0804087    -0.9599521
H          -0.2750253    -1.9498045     0.5385276
H           0.3603769    -2.5084651    -1.0170534
