14
169_C3H8N2O_0-2-3-5 (-165,) energy =    -303.8788484
N           1.2667931    -0.7790882    -0.4913051
H           1.1405655     0.1623507    -0.1408361
C           2.5151222    -1.3455501    -0.2740587
N           3.5307699    -0.4128757    -0.1040254
H           3.3508446     0.5012136    -0.5012510
C           4.9119978    -0.8649415    -0.2007358
H           5.0009988    -1.8088200     0.3380298
H           5.5678747    -0.1224027     0.2632766
H           5.2368004    -1.0323125    -1.2376955
O           2.7050077    -2.5552115    -0.2446042
C           0.0894690    -1.6332213    -0.4326491
H          -0.7408423    -1.1376080    -0.9443669
H          -0.2160765    -1.8741949     0.5955883
H           0.3200151    -2.5682077    -0.9443568
14
169_C3H8N2O_0-2-3-5 (-150,) energy =    -303.8772627
N           1.2919364    -0.8084334    -0.5049049
H           1.1579312     0.1630864    -0.2526867
C           2.5133836    -1.3730028    -0.1673533
N           3.5323140    -0.4456556     0.0438617
H           3.3205547     0.4874790    -0.2922656
C           4.8988747    -0.8631816    -0.2578862
H           5.0494712    -1.8596676     0.1584564
H           5.6016285    -0.1690028     0.2120190
H           5.1025921    -0.9048170    -1.3376816
O           2.6919206    -2.5825299    -0.1033326
C           0.0948343    -1.6363944    -0.4642569
H          -0.6701269    -1.1993344    -1.1130297
H          -0.3166561    -1.7471368     0.5491956
H           0.3589036    -2.6271250    -0.8351297
14
169_C3H8N2O_0-2-3-5 (-135,) energy =    -303.8739444
N           1.3337041    -0.8279409    -0.5072319
H           1.2166769     0.1677118    -0.3682243
C           2.5163440    -1.3977726    -0.0649958
N           3.5485508    -0.4851340     0.1847282
H           3.3049951     0.4715039    -0.0531089
C           4.8743340    -0.8399952    -0.3253348
H           5.0853274    -1.8702861    -0.0360703
H           5.6236206    -0.1846711     0.1280511
H           4.9438448    -0.7619374    -1.4202961
O           2.6736302    -2.6075342     0.0297916
C           0.1099265    -1.6165622    -0.5105349
H          -0.5512183    -1.2663750    -1.3092863
H          -0.4303066    -1.5697740     0.4455790
H           0.3876008    -2.6536544    -0.7006794
14
169_C3H8N2O_0-2-3-5 (-120,) energy =    -303.8694893
N           1.3846847    -0.8566748    -0.4834869
H           1.3056065     0.1513442    -0.4661164
C           2.5181581    -1.4307558     0.0611185
N           3.5757477    -0.5363742     0.3216181
H           3.3039398     0.4325721     0.1761449
C           4.8296096    -0.8208248    -0.3860335
H           5.0988297    -1.8620436    -0.2004697
H           5.6209652    -0.1793408     0.0122956
H           4.7538223    -0.6647386    -1.4727516
O           2.6370925    -2.6375146     0.2167085
C           0.1379899    -1.6046962    -0.5450312
H          -0.4309683    -1.3033206    -1.4301347
H          -0.4879465    -1.4606995     0.3467050
H           0.3945348    -2.6616086    -0.6237049
14
169_C3H8N2O_0-2-3-5 (-105,) energy =    -303.8671252
N           1.4143340    -0.7822373    -0.4263933
H           1.4901387     0.1853602    -0.7037061
C           2.4587734    -1.2880435     0.2830290
N           3.5401356    -0.3285432     0.3743947
H           3.8889622    -0.4241902     1.3289714
C           4.6578612    -0.6915046    -0.5217945
H           5.0268142    -1.7149074    -0.3621243
H           5.4786078     0.0142232    -0.3632902
H           4.3302626    -0.5995584    -1.5623956
O           2.4795595    -2.3962633     0.7992490
C           0.2021424    -1.5300476    -0.6949231
H          -0.0186442    -1.5511579    -1.7685116
H          -0.6591140    -1.1021140    -0.1667082
H           0.3608068    -2.5492724    -0.3393532
14
169_C3H8N2O_0-2-3-5 (-90,) energy =    -303.8690813
N           1.4812780    -0.8126549    -0.4550280
H           1.5868115     0.1389261    -0.7746875
C           2.4543133    -1.2901025     0.3724957
N           3.5699344    -0.3877707     0.4564191
H           3.9850020    -0.5784384     1.3678975
C           4.6078347    -0.6495899    -0.5607889
H           4.9922565    -1.6799891    -0.5334500
H           5.4394508     0.0430803    -0.4015757
H           4.1987707    -0.4608944    -1.5580584
O           2.3752183    -2.3330889     1.0069109
C           0.2519484    -1.5327275    -0.7210198
H           0.0719685    -1.6215175    -1.7987908
H          -0.6126910    -1.0392798    -0.2591123
H           0.3556015    -2.5291698    -0.2890333
14
169_C3H8N2O_0-2-3-5 (-75,) energy =    -303.8715492
N           1.5355406    -0.8797343    -0.5591152
H           1.6672470     0.0524299    -0.9241848
C           2.4145715    -1.2907685     0.4057944
N           3.5669512    -0.4572776     0.4892265
H           4.0028489    -0.7004076     1.3765707
C           4.5628856    -0.6225749    -0.5842689
H           4.9489289    -1.6497622    -0.6643705
H           5.4010317     0.0539721    -0.3932844
H           4.1229308    -0.3469426    -1.5468332
O           2.2133730    -2.2327325     1.1609772
C           0.2607056    -1.5399144    -0.7649284
H           0.0169010    -1.5739930    -1.8320341
H          -0.5568414    -1.0369807    -0.2306560
H           0.3444591    -2.5570840    -0.3798799
14
169_C3H8N2O_0-2-3-5 (-60,) energy =    -303.8739849
N           1.6332993    -0.9488680    -0.5620781
H           1.7836511    -0.0587756    -1.0158321
C           2.4399583    -1.2346220     0.5124496
N           3.6192638    -0.4601297     0.5618385
H           4.0784199    -0.7073701     1.4342795
C           4.5674773    -0.5398485    -0.5574888
H           4.9228504    -1.5619575    -0.7555735
H           5.4298523     0.0929526    -0.3291440
H           4.1108029    -0.1557980    -1.4738773
O           2.1441997    -2.0416718     1.3848081
C           0.3153039    -1.5488625    -0.6718827
H          -0.0013529    -1.5478875    -1.7191984
H          -0.4389074    -1.0230434    -0.0698890
H           0.3737905    -2.5777947    -0.3141587
14
169_C3H8N2O_0-2-3-5 (-45,) energy =    -303.8759291
N           1.6879539    -1.0438975    -0.5951785
H           1.8954760    -0.2189644    -1.1407582
C           2.4294610    -1.2367156     0.5489055
N           3.6374593    -0.5267183     0.5883657
H           4.1191035    -0.7983052     1.4389724
C           4.5289665    -0.4842601    -0.5722838
H           4.7554800    -1.4767671    -0.9876297
H           5.4654342    -0.0085924    -0.2688965
H           4.1037596     0.1313867    -1.3723276
O           2.0556272    -1.9356278     1.4834132
C           0.3317080    -1.5614094    -0.6713552
H           0.0361773    -1.6517498    -1.7208345
H          -0.3950531    -0.9243553    -0.1480937
H           0.3124311    -2.5473950    -0.2054281
14
169_C3H8N2O_0-2-3-5 (-30,) energy =    -303.8770938
N           1.7699056    -1.1360139    -0.5950552
H           2.0224451    -0.3852896    -1.2226436
C           2.4852585    -1.2467273     0.5797262
N           3.7197241    -0.6018635     0.5811292
H           4.2345018    -0.8709497     1.4100941
C           4.5266204    -0.4171686    -0.6189056
H           4.6447732    -1.3364541    -1.2100256
H           5.5166601    -0.0647971    -0.3188512
H           4.1000857     0.3571797    -1.2690877
O           2.0728754    -1.8525274     1.5627942
C           0.3860004    -1.5806131    -0.6338763
H           0.0997845    -1.7855897    -1.6698250
H          -0.3098557    -0.8430325    -0.2097624
H           0.3047265    -2.4972387    -0.0487539
14
169_C3H8N2O_0-2-3-5 (-15,) energy =    -303.8772334
N           1.7814748    -1.2403955    -0.5677865
H           2.0824238    -0.5618822    -1.2534144
C           2.4681662    -1.2874106     0.6312810
N           3.7316795    -0.7216229     0.6096143
H           4.2505002    -0.9403329     1.4479318
C           4.4838612    -0.3850504    -0.5854204
H           4.5539623    -1.2202950    -1.2969791
H           5.4962173    -0.0981030    -0.2912152
H           4.0469513     0.4779751    -1.1068429
O           2.0120802    -1.8071515     1.6448853
C           0.3745840    -1.6073353    -0.5953806
H           0.0961061    -1.9009348    -1.6120295
H          -0.2859056    -0.7928199    -0.2654157
H           0.2306536    -2.4533491     0.0772810
14
169_C3H8N2O_0-2-3-5 (0,) energy =    -303.8767887
N           1.7825185    -1.2938611    -0.5962203
H           2.1276090    -0.6757039    -1.3168201
C           2.4531499    -1.3138661     0.6139298
N           3.7511106    -0.8489097     0.5736504
H           4.2149818    -0.8928111     1.4677850
C           4.4673069    -0.3527207    -0.5820664
H           4.4630044    -1.0800955    -1.4049204
H           5.5080005    -0.1746699    -0.3011684
H           4.0609591     0.5995787    -0.9570030
O           1.9567935    -1.7511880     1.6481872
C           0.3604903    -1.5941242    -0.6264063
H           0.0857287    -1.9603839    -1.6204374
H          -0.2656368    -0.7240182    -0.3818589
H           0.1635913    -2.3715560     0.1122510
14
169_C3H8N2O_0-2-3-5 (15,) energy =    -303.8772330
N           1.7018024    -1.2321214     0.0296732
H           1.9867980    -0.5422691     0.7107667
C           2.4367568    -1.3224721    -1.1377709
N           3.7103094    -0.7828316    -1.0761002
H           4.2576722    -1.0307592    -1.8876785
C           4.4188672    -0.4332481     0.1415393
H           4.4361367    -1.2508949     0.8763326
H           3.9827333     0.4540233     0.6213947
H           5.4502137    -0.1798852    -0.1151591
O           2.0117837    -1.8570643    -2.1571802
C           0.2882404    -1.5727950     0.0065839
H          -0.3410037    -0.7599782    -0.3831836
H          -0.0406330    -1.8223022     1.0199052
H           0.1573998    -2.4412007    -0.6397628
14
169_C3H8N2O_0-2-3-5 (30,) energy =    -303.8770939
N           1.6976604    -1.1483172     0.0073229
H           1.9285197    -0.3859928     0.6292510
C           2.4704932    -1.2968291    -1.1261547
N           3.7124845    -0.6683263    -1.0792310
H           4.2650913    -0.9641543    -1.8740255
C           4.4595153    -0.4650821     0.1560484
H           4.5341652    -1.3712055     0.7739781
H           4.0113824     0.3303211     0.7649779
H           5.4685277    -0.1330355    -0.1008868
O           2.1003328    -1.9208857    -2.1145938
C           0.3073747    -1.5737434    -0.0146077
H          -0.3553796    -0.8373845    -0.4906822
H          -0.0341524    -1.7503625     1.0097430
H           0.2429732    -2.5028307    -0.5819009
14
169_C3H8N2O_0-2-3-5 (45,) energy =    -303.8759286
N           1.6160601    -1.0577481     0.0048235
H           1.8049880    -0.2192315     0.5364106
C           2.4114349    -1.2877843    -1.0957051
N           3.6295961    -0.5941171    -1.0909440
H           4.1497147    -0.8935615    -1.9089711
C           4.4619570    -0.5348127     0.1122589
H           4.6544500    -1.5198937     0.5610385
H           4.0046189     0.1041646     0.8753314
H           5.4185320    -0.0772943    -0.1540559
O           2.0756112    -2.0045728    -2.0310149
C           0.2499703    -1.5547249     0.0224310
H          -0.4392342    -0.9209305    -0.5530050
H          -0.1007458    -1.6153914     1.0569498
H           0.2402562    -2.5514368    -0.4203521
14
169_C3H8N2O_0-2-3-5 (60,) energy =    -303.8739853
N           1.5643602    -0.9636214    -0.0334841
H           1.7030091    -0.0632968     0.4035954
C           2.4201097    -1.2860933    -1.0586248
N           3.6108974    -0.5273504    -1.0671268
H           4.1099578    -0.8029218    -1.9086548
C           4.5001988    -0.5908443     0.1006187
H           4.8322027    -1.6118245     0.3405160
H           4.0024255    -0.1795528     0.9831260
H           5.3809041     0.0264800    -0.0982895
O           2.1580012    -2.1108535    -1.9250699
C           0.2333335    -1.5422737     0.0215594
H          -0.4808439    -1.0199524    -0.6302406
H          -0.1365798    -1.5126156     1.0508432
H           0.2945125    -2.5799052    -0.3095314
14
169_C3H8N2O_0-2-3-5 (75,) energy =    -303.8715492
N           1.4690968    -0.8902083    -0.0467186
H           1.5952388     0.0486975     0.3027043
C           2.3904080    -1.3358644    -0.9551613
N           3.5573066    -0.5197123    -0.9986769
H           4.0345363    -0.7898830    -1.8564407
C           4.4945421    -0.6719658     0.1282700
H           4.8613105    -1.7018559     0.2522348
H           4.0098748    -0.3674426     1.0601645
H           5.3509149    -0.0112022    -0.0351215
O           2.2147213    -2.2931080    -1.6973860
C           0.1761332    -1.5285705     0.1086474
H          -0.6058117    -1.0279632    -0.4784854
H          -0.1223015    -1.5338725     1.1623210
H           0.2649296    -2.5556852    -0.2478093
14
169_C3H8N2O_0-2-3-5 (90,) energy =    -303.8690813
N           1.4211920    -0.8249979    -0.1549546
H           1.5237749     0.1325666     0.1473251
C           2.4283873    -1.3349048    -0.9198741
N           3.5595770    -0.4494615    -0.9673769
H           4.0179702    -0.6674588    -1.8515607
C           4.5402497    -0.7001452     0.1077682
H           4.9108562    -1.7358209     0.1244075
H           4.0834341    -0.4821296     1.0779612
H           5.3886998    -0.0224030    -0.0246097
O           2.3670050    -2.3917804    -1.5329040
C           0.1697352    -1.5223750     0.0641991
H          -0.6630280    -1.0290030    -0.4530438
H          -0.0663894    -1.5827782     1.1330598
H           0.2811502    -2.5302173    -0.3384102
14
169_C3H8N2O_0-2-3-5 (105,) energy =    -303.8671252
N           1.3562400    -0.7944105    -0.1877036
H           1.4315309     0.1785287     0.0703937
C           2.4282935    -1.3307451    -0.8303699
N           3.5264678    -0.3878887    -0.8884060
H           3.9222716    -0.5110785    -1.8212557
C           4.5916030    -0.7436367     0.0723940
H           4.9536296    -1.7753116    -0.0440447
H           4.2125440    -0.6223463     1.0923099
H           5.4293500    -0.0526850    -0.0601429
O           2.4596760    -2.4512770    -1.3187237
C           0.1213729    -1.5196776     0.0355174
H          -0.7055538    -1.0934399    -0.5462166
H          -0.1543220    -1.5119964     1.0965160
H           0.2834883    -2.5491659    -0.2874315
14
169_C3H8N2O_0-2-3-5 (120,) energy =    -303.8694892
N           1.3275434    -0.8637753    -0.1323031
H           1.2634770     0.1444676    -0.1769908
C           2.4786108    -1.4651124    -0.6059763
N           3.5602334    -0.5907726    -0.8338189
H           3.2950347     0.3847357    -0.7244362
C           4.7732005    -0.8743449    -0.0577594
H           5.0368754    -1.9229900    -0.2056255
H           4.6454496    -0.6916781     1.0199067
H           5.5922380    -0.2525364    -0.4304994
O           2.5882866    -2.6766597    -0.7273968
C           0.0690375    -1.5941455    -0.1157052
H          -0.5098066    -1.4635694    -1.0407008
H          -0.5389002    -1.2644370     0.7326201
H           0.3066120    -2.6520591     0.0002503
14
169_C3H8N2O_0-2-3-5 (135,) energy =    -303.8739444
N           1.2758461    -0.8338550    -0.1116511
H           1.1797741     0.1596172    -0.2793588
C           2.4709579    -1.4291310    -0.4808028
N           3.5269461    -0.5359711    -0.6995962
H           3.2852365     0.4290979    -0.4964685
C           4.8206289    -0.8954944    -0.1157108
H           5.0313714    -1.9349900    -0.3701281
H           4.8366491    -0.7922876     0.9792584
H           5.6006124    -0.2607707    -0.5460480
O           2.6158679    -2.6427199    -0.5395576
C           0.0425396    -1.6064748    -0.1513429
H          -0.4487796    -1.5755586    -1.1341168
H          -0.6525573    -1.2289606     0.6050110
H           0.2959269    -2.6422101     0.0763972
14
169_C3H8N2O_0-2-3-5 (150,) energy =    -303.8772628
N           1.2346112    -0.8138959    -0.1163579
H           1.1268387     0.1529284    -0.3975407
C           2.4633214    -1.4018997    -0.3793664
N           3.5042882    -0.4928500    -0.5605919
H           3.2890756     0.4505537    -0.2568839
C           4.8482122    -0.9205613    -0.1813752
H           5.0055441    -1.9283211    -0.5669579
H           4.9973264    -0.9395730     0.9079334
H           5.5830334    -0.2465169    -0.6311075
O           2.6279470    -2.6147802    -0.4065306
C           0.0295608    -1.6272190    -0.1976963
H          -0.3319962    -1.7576014    -1.2277208
H          -0.7607964    -1.1645081     0.4009018
H           0.2606565    -2.6118355     0.2096733
14
169_C3H8N2O_0-2-3-5 (165,) energy =    -303.8788479
N           1.2102705    -0.7850496    -0.1329848
H           1.1147487     0.1490646    -0.5115924
C           2.4599874    -1.3725143    -0.2734974
N           3.4957990    -0.4573878    -0.4138670
H           3.3071032     0.4691294    -0.0512035
C           4.8638159    -0.9246044    -0.2368880
H           4.9671310    -1.8812747    -0.7499103
H           5.1332292    -1.0729602     0.8186623
H           5.5526391    -0.2010220    -0.6827557
O           2.6342639    -2.5848527    -0.2640818
C           0.0255660    -1.6253121    -0.2292815
H          -0.2342714    -1.8852544    -1.2654601
H          -0.8213276    -1.1082428     0.2315283
H           0.2190274    -2.5515418     0.3128103
14
169_C3H8N2O_0-2-3-5 (180,) energy =    -303.8784394
N           1.2503989    -0.7755823    -0.4712937
H           1.1490714     0.1415932    -0.0564298
C           2.5123402    -1.3458691    -0.3788375
N           3.5327536    -0.4170633    -0.2683603
H           3.3698855     0.5007453    -0.6591922
C           4.9103047    -0.8646769    -0.1629392
H           4.9309669    -1.7692980     0.4462983
H           5.5074185    -0.0878816     0.3246043
H           5.3624801    -1.1026905    -1.1363670
O           2.7037257    -2.5564499    -0.3748496
C           0.0819652    -1.6388675    -0.3983285
H          -0.7821821    -1.1136784    -0.8162142
H          -0.1537834    -1.9565384     0.6275053
H           0.2779653    -2.5338716    -0.9900012
