21
444_C9H8ClN3_4-5-17-18 (-165,) energy =    -972.1961487
C           5.9756383     0.8547736    -0.4953863
H           6.8578781     1.4736728    -0.6212373
C           5.9793037    -0.2500777     0.3482061
H           6.8645003    -0.5213376     0.9199982
N           4.9197627    -1.0418301     0.5068433
C           3.7815301    -0.7944590    -0.1460506
C           3.6593575     0.3452281    -0.9810228
Cl          2.2005603     0.8934812    -1.7743938
C           4.7869346     1.1485039    -1.1560029
H           4.7082468     2.0158075    -1.8029089
C           1.4565308    -3.2937660     0.9540419
H           1.0497336    -4.0754909     1.5799113
C           2.6558601    -2.6458545     1.1484377
C           3.6342767    -2.8593949     2.2607505
H           3.1943448    -3.5636097     2.9741272
H           3.8675374    -1.9298796     2.7885520
H           4.5838492    -3.2650393     1.9022389
N           2.7498654    -1.7256397     0.1068445
N           1.6559691    -1.7723457    -0.7134997
C           0.8881686    -2.7181782    -0.2056610
H          -0.0501276    -2.9564997    -0.6903138
21
444_C9H8ClN3_4-5-17-18 (-150,) energy =    -972.1981874
C           5.9932933     0.8052624    -0.5485860
H           6.8749792     1.4197544    -0.6987127
C           6.0556563    -0.3820980     0.1738664
H           6.9875512    -0.7192798     0.6228433
N           5.0011072    -1.1787706     0.3528118
C           3.8147937    -0.8382686    -0.1561861
C           3.6337141     0.3866198    -0.8392966
Cl          2.0918360     1.0161648    -1.3667384
C           4.7531643     1.1910574    -1.0497513
H           4.6319228     2.1266158    -1.5855480
C           1.4666408    -3.3252846     0.9073094
H           1.0299622    -4.0826575     1.5429065
C           2.6295660    -2.6294089     1.1548943
C           3.5412563    -2.7222976     2.3375351
H           3.0647488    -3.3459490     3.0999592
H           3.7447261    -1.7396004     2.7758449
H           4.5080706    -3.1596239     2.0746366
N           2.7768677    -1.7659498     0.0792299
N           1.7580419    -1.8884819    -0.8253614
C           0.9781772    -2.8307757    -0.3251429
H           0.0895926    -3.1269676    -0.8680359
21
444_C9H8ClN3_4-5-17-18 (-135,) energy =    -972.1993238
C           5.9831157     0.7773292    -0.6209544
H           6.8631056     1.3873265    -0.7979276
C           6.0858344    -0.4730465    -0.0172035
H           7.0491765    -0.8631455     0.3040118
N           5.0346372    -1.2694528     0.1908427
C           3.8182401    -0.8535082    -0.1660037
C           3.6044032     0.4235439    -0.7252730
Cl          2.0198226     1.0773012    -1.0530242
C           4.7137432     1.2307888    -0.9709615
H           4.5681733     2.2113943    -1.4117897
C           1.4717144    -3.3519220     0.8646788
H           1.0214317    -4.1010478     1.5005409
C           2.5857700    -2.5949309     1.1584457
C           3.4393030    -2.5821199     2.3867584
H           2.9691685    -3.1997114     3.1573029
H           3.5576743    -1.5693395     2.7888543
H           4.4424168    -2.9687842     2.1859296
N           2.7647776    -1.7659936     0.0682036
N           1.8272448    -1.9733106    -0.9066299
C           1.0526055    -2.9288962    -0.4194293
H           0.2179725    -3.2867830    -1.0088534
21
444_C9H8ClN3_4-5-17-18 (-120,) energy =    -972.1990924
C           6.0003524     0.7451664    -0.6550568
H           6.8797056     1.3501130    -0.8522514
C           6.1216390    -0.5612645    -0.1855301
H           7.0994524    -0.9992130     0.0023138
N           5.0714152    -1.3542080     0.0443585
C           3.8439364    -0.8718925    -0.1527906
C           3.6185230     0.4482776    -0.5836376
Cl          2.0157499     1.1185557    -0.7409845
C           4.7207020     1.2581309    -0.8518178
H           4.5664540     2.2761326    -1.1937472
C           1.4898528    -3.3700045     0.8534515
H           1.0243911    -4.1081253     1.4912459
C           2.5550516    -2.5577738     1.1822137
C           3.3495402    -2.4514635     2.4447084
H           2.9200396    -3.1111099     3.2034464
H           3.3431244    -1.4297195     2.8436439
H           4.3946384    -2.7344103     2.2844665
N           2.7713808    -1.7681450     0.0751645
N           1.9201295    -2.0592604    -0.9554260
C           1.1466396    -3.0209416    -0.4746898
H           0.3668015    -3.4360442    -1.1005533
21
444_C9H8ClN3_4-5-17-18 (-105,) energy =    -972.1977248
C           6.0097645     0.7198334    -0.6919152
H           6.8856592     1.3272199    -0.8974525
C           6.1374071    -0.6346957    -0.3860362
H           7.1159807    -1.1075538    -0.3423604
N           5.0911481    -1.4307444    -0.1470564
C           3.8673263    -0.9038906    -0.1745143
C           3.6398968     0.4542841    -0.4500812
Cl          2.0345601     1.1363525    -0.4323139
C           4.7333947     1.2753077    -0.7214887
H           4.5775031     2.3259044    -0.9427086
C           1.4913658    -3.3796473     0.8369135
H           1.0018947    -4.0895678     1.4886170
C           2.5142734    -2.5188443     1.1800784
C           3.2410906    -2.3118461     2.4704588
H           2.8374798    -2.9832576     3.2328173
H           3.1348966    -1.2834919     2.8378694
H           4.3120212    -2.5163171     2.3627220
N           2.7824194    -1.7935089     0.0446531
N           2.0169855    -2.1754196    -1.0215529
C           1.2313652    -3.1238635    -0.5299443
H           0.5036158    -3.5966901    -1.1772852
21
444_C9H8ClN3_4-5-17-18 (-90,) energy =    -972.1962703
C           6.0101373     0.7182881    -0.7117929
H           6.8687832     1.3518544    -0.9114547
C           6.1491721    -0.6679404    -0.6380994
H           7.1198647    -1.1387710    -0.7764930
N           5.1251718    -1.4937946    -0.4043939
C           3.9134376    -0.9708721    -0.2243513
C           3.6768534     0.4114596    -0.2710423
Cl          2.0805152     1.0700172    -0.0153004
C           4.7464988     1.2701383    -0.5217330
H           4.5824197     2.3416266    -0.5658420
C           1.4734101    -3.3724969     0.8341751
H           0.9337753    -4.0181085     1.5126329
C           2.4777203    -2.4845200     1.1670831
C           3.1125329    -2.1499873     2.4792367
H           2.7031794    -2.7932191     3.2624873
H           2.9264864    -1.1082699     2.7696321
H           4.1983580    -2.2985255     2.4511770
N           2.8426614    -1.8830946    -0.0107116
N           2.1490007    -2.3547302    -1.0868346
C           1.3165088    -3.2476898    -0.5651012
H           0.6302420    -3.7746668    -1.2158576
21
444_C9H8ClN3_4-5-17-18 (-75,) energy =    -972.1958696
C           6.0251429     0.7130301    -0.7384275
H           6.8720333     1.3621437    -0.9382064
C           6.1386938    -0.6709616    -0.8744990
H           7.0773992    -1.1250465    -1.1841246
N           5.1311474    -1.5144051    -0.6362470
C           3.9546561    -1.0149719    -0.2606550
C           3.7423947     0.3638765    -0.1053598
Cl          2.1832533     1.0032357     0.3597853
C           4.7996275     1.2412176    -0.3436149
H           4.6521634     2.3100008    -0.2300629
C           1.4757291    -3.3674770     0.8256039
H           0.8929385    -3.9604345     1.5163397
C           2.4451128    -2.4402582     1.1540479
C           2.9795911    -1.9976175     2.4790148
H           2.5283899    -2.5955642     3.2751331
H           2.7530190    -0.9438337     2.6818311
H           4.0673846    -2.1227011     2.5396754
N           2.9035010    -1.9477691    -0.0430601
N           2.2928694    -2.5182649    -1.1215579
C           1.4256403    -3.3691041    -0.5871483
H           0.7914865    -3.9573016    -1.2383162
21
444_C9H8ClN3_4-5-17-18 (-60,) energy =    -972.1954445
C           6.0521005     0.6911616    -0.7723235
H           6.9075217     1.3265903    -0.9792021
C           6.0911361    -0.6754462    -1.0508097
H           6.9777146    -1.1297096    -1.4878805
N           5.0738083    -1.5023493    -0.8017692
C           3.9552698    -1.0055470    -0.2742722
C           3.8081257     0.3641062     0.0020617
Cl          2.2994321     1.0368668     0.5808178
C           4.8820043     1.2208028    -0.2371107
H           4.7838972     2.2803279    -0.0255680
C           1.5040917    -3.3865213     0.8114574
H           0.9203497    -3.9796421     1.5013173
C           2.4032759    -2.3931313     1.1423902
C           2.8536473    -1.8946653     2.4790073
H           2.4686670    -2.5548681     3.2607453
H           2.4938104    -0.8808298     2.6873323
H           3.9471925    -1.8829232     2.5597265
N           2.8965718    -1.9273959    -0.0561864
N           2.3882664    -2.5994378    -1.1312144
C           1.5359361    -3.4648195    -0.5999808
H           0.9705285    -4.1187764    -1.2518014
21
444_C9H8ClN3_4-5-17-18 (-45,) energy =    -972.1938896
C           6.0962544     0.6420591    -0.8121937
H           6.9657707     1.2554724    -1.0261548
C           6.0422517    -0.6927312    -1.2145197
H           6.8653795    -1.1424944    -1.7657393
N           5.0081716    -1.4938682    -0.9565292
C           3.9611407    -1.0068759    -0.2896906
C           3.8929178     0.3465511     0.0880116
Cl          2.4433925     1.0636967     0.7621316
C           4.9905579     1.1716485    -0.1547647
H           4.9531904     2.2147817     0.1410213
C           1.5417158    -3.4100045     0.8058214
H           0.9617590    -4.0034364     1.4987146
C           2.3669551    -2.3536553     1.1269775
C           2.7338137    -1.8042450     2.4698075
H           2.5391599    -2.5624713     3.2334420
H           2.1568911    -0.9098853     2.7274393
H           3.7953250    -1.5383221     2.5253665
N           2.8831617    -1.9054287    -0.0763631
N           2.4742604    -2.6736788    -1.1323763
C           1.6444703    -3.5546731    -0.5975618
H           1.1474521    -4.2711982    -1.2393845
21
444_C9H8ClN3_4-5-17-18 (-30,) energy =    -972.1903417
C           5.4556509     1.3220260    -0.5951167
H           6.0665110     2.0953309    -1.0498225
C           4.1308119     1.5677028    -0.2354029
H           3.6868134     2.5508576    -0.3776927
N           3.3335348     0.6431874     0.2981791
C           3.8024009    -0.5883592     0.5041848
C           5.1626110    -0.8903157     0.2905087
Cl          5.9177668    -2.3632261     0.8716923
C           5.9822177     0.0677225    -0.3051131
H           7.0256377    -0.1642882    -0.4909124
C           1.3762094    -3.0903687     1.3093253
H           0.8135699    -4.0078103     1.2067904
C           2.5345689    -2.7672416     0.6404123
C           3.2228263    -3.5349868    -0.4450635
H           2.4961576    -4.2007512    -0.9195516
H           4.0479647    -4.1484658    -0.0706416
H           3.6291010    -2.8766056    -1.2202052
N           2.9007254    -1.5065672     1.1050515
N           1.9580555    -0.9936143     1.9599277
C           1.0757291    -1.9635768     2.1107348
H           0.2425908    -1.8203369     2.7874860
21
444_C9H8ClN3_4-5-17-18 (-15,) energy =    -972.1841271
C           5.4261000     1.3428225    -0.6128563
H           6.0191059     2.1199376    -1.0842271
C           4.1596368     1.6098591    -0.0950751
H           3.7501874     2.6180039    -0.1097335
N           3.3839277     0.6785362     0.4557937
C           3.8003689    -0.5875790     0.5105991
C           5.1387879    -0.9058675     0.1885891
Cl          5.9426512    -2.3797076     0.7070980
C           5.9306150     0.0593769    -0.4330116
H           6.9485009    -0.1907105    -0.7132210
C           1.3609193    -3.0851605     1.2758858
H           0.8041765    -4.0050258     1.1627297
C           2.5608209    -2.7863680     0.6769972
C           3.2720112    -3.6046474    -0.3564321
H           2.5423030    -4.2712248    -0.8253333
H           4.0714381    -4.2221053     0.0625344
H           3.7129524    -2.9860851    -1.1445100
N           2.9105186    -1.5078206     1.1326605
N           1.8903173    -0.9643973     1.8809189
C           1.0028042    -1.9283756     2.0081182
H           0.1202776    -1.7583375     2.6124559
21
444_C9H8ClN3_4-5-17-18 (0,) energy =    -972.1752601
C           5.4065315     1.3992253    -0.5995453
H           5.9765605     2.1875511    -1.0802967
C           4.2261575     1.6666718     0.0918759
H           3.8736277     2.6872412     0.2285577
N           3.4781402     0.7178642     0.6462907
C           3.8126554    -0.5691028     0.5289292
C           5.1162275    -0.8939391     0.0821332
Cl          5.9795499    -2.3720647     0.4929116
C           5.8731678     0.0909804    -0.5548906
H           6.8513409    -0.1700828    -0.9451001
C           1.3460925    -3.0657881     1.2516625
H           0.8005699    -3.9929642     1.1432368
C           2.5843070    -2.7951574     0.7247940
C           3.3213546    -3.6916258    -0.2231340
H           2.6012850    -4.4114586    -0.6231251
H           4.1298469    -4.2535410     0.2507073
H           3.7491513    -3.1456043    -1.0692156
N           2.9111744    -1.4903967     1.1448403
N           1.8221047    -0.9154828     1.7736963
C           0.9312642    -1.8734288     1.8885445
H           0.0020323    -1.6710504     2.4070746
21
444_C9H8ClN3_4-5-17-18 (15,) energy =    -972.1841272
C           5.7263733     1.2958156    -0.0806658
H           6.5326244     2.0196847    -0.1415715
C           4.6123852     1.5164368     0.7278737
H           4.5008686     2.4439393     1.2860250
N           3.6205652     0.6383764     0.8612668
C           3.6750220    -0.5304885     0.2209022
C           4.6643913    -0.7504353    -0.7635575
Cl          4.5389841    -1.9775203    -2.0150018
C           5.7268543     0.1472670    -0.8648763
H           6.5072521    -0.0359070    -1.5960243
C           1.3920579    -3.0762703     1.2588409
H           1.0679189    -4.0574238     1.5769268
C           2.5950347    -2.7732672     0.6690407
C           3.7533622    -3.7020503     0.4719686
H           3.6463538    -4.5348103     1.1731909
H           4.7135414    -3.2170317     0.6744914
H           3.8016252    -4.1169784    -0.5386593
N           2.5611145    -1.3957081     0.4097478
N           1.4284834    -0.8296983     0.9514559
C           0.7156236    -1.8411773     1.3999332
H          -0.2612849    -1.6516075     1.8274073
21
444_C9H8ClN3_4-5-17-18 (30,) energy =    -972.1903426
C           5.7413366     1.2830009    -0.1238039
H           6.5449756     2.0074957    -0.2086525
C           4.7206785     1.4441110     0.8128473
H           4.6918342     2.3164007     1.4626395
N           3.7300226     0.5678316     0.9743031
C           3.6944238    -0.5285093     0.2157021
C           4.6100603    -0.7098147    -0.8405293
Cl          4.4040784    -1.9280770    -2.0858125
C           5.6674664     0.1885288    -0.9791119
H           6.3879252     0.0451798    -1.7775283
C           1.3797416    -3.0658761     1.2146985
H           1.0407412    -4.0430457     1.5293312
C           2.6206764    -2.7610393     0.7037099
C           3.8111090    -3.6578459     0.5619620
H           3.7165767    -4.4828232     1.2739954
H           4.7485152    -3.1349648     0.7786534
H           3.8991992    -4.0866019    -0.4410116
N           2.5903718    -1.3967712     0.4270496
N           1.4144206    -0.8254962     0.8432581
C           0.6811124    -1.8365585     1.2702393
H          -0.3286442    -1.6498487     1.6140063
21
444_C9H8ClN3_4-5-17-18 (45,) energy =    -972.1938896
C           5.7437574     1.2672289    -0.1635791
H           6.5478938     1.9883849    -0.2703961
C           4.8235821     1.3669237     0.8803525
H           4.8838404     2.1799368     1.6008026
N           3.8327244     0.4948903     1.0686316
C           3.6953436    -0.5238412     0.2192711
C           4.5276223    -0.6618432    -0.9064919
Cl          4.2315227    -1.8545933    -2.1553015
C           5.5824903     0.2334511    -1.0803927
H           6.2368987     0.1308715    -1.9396027
C           1.3609105    -3.0647938     1.1799410
H           1.0129148    -4.0407478     1.4882022
C           2.6330393    -2.7482579     0.7538835
C           3.8536944    -3.6103065     0.6732379
H           3.7254738    -4.4765923     1.3282519
H           4.7528958    -3.0752325     0.9984144
H           4.0390895    -3.9786964    -0.3411623
N           2.6017826    -1.3959654     0.4610690
N           1.3879220    -0.8329982     0.7477445
C           0.6399667    -1.8481461     1.1487009
H          -0.3966021    -1.6721857     1.4074173
21
444_C9H8ClN3_4-5-17-18 (60,) energy =    -972.1954446
C           5.7503836     1.2546812    -0.2087240
H           6.5588979     1.9676549    -0.3363362
C           4.9423877     1.2847349     0.9284708
H           5.1019694     2.0286194     1.7060285
N           3.9465353     0.4225156     1.1413559
C           3.6941786    -0.5085258     0.2215727
C           4.4277301    -0.5911293    -0.9737716
Cl          4.0214141    -1.7347107    -2.2350966
C           5.4829501     0.2964514    -1.1814803
H           6.0605169     0.2422334    -2.0982350
C           1.3488335    -3.0600883     1.1383810
H           0.9986773    -4.0371601     1.4402886
C           2.6441496    -2.7213441     0.8043484
C           3.8954878    -3.5411254     0.8039634
H           3.6981420    -4.5047767     1.2810338
H           4.7016897    -3.0503593     1.3622200
H           4.2638263    -3.7364854    -0.2094513
N           2.6055599    -1.3809873     0.4887115
N           1.3609520    -0.8397272     0.6431029
C           0.6058347    -1.8630052     1.0167265
H          -0.4516812    -1.7059556     1.1876193
21
444_C9H8ClN3_4-5-17-18 (75,) energy =    -972.1958695
C           5.7681992     1.1799752    -0.2489698
H           6.5819789     1.8833720    -0.3955226
C           5.0754405     1.1320164     0.9612266
H           5.3371370     1.7989340     1.7797419
N           4.0715258     0.2832898     1.1960269
C           3.7017198    -0.5531065     0.2273288
C           4.3332160    -0.5724443    -1.0261817
Cl          3.8154569    -1.6566311    -2.2960580
C           5.3888058     0.3069308    -1.2641626
H           5.8867405     0.3064766    -2.2280050
C           1.3469641    -3.1086722     1.1130851
H           0.9960089    -4.0841513     1.4190920
C           2.6572592    -2.7455117     0.8709946
C           3.9307214    -3.5245158     0.9634936
H           3.7227717    -4.5223658     1.3584527
H           4.6534905    -3.0419004     1.6322818
H           4.4104717    -3.6447602    -0.0154471
N           2.6116189    -1.4206825     0.5125624
N           1.3465634    -0.9098616     0.5251189
C           0.5877998    -1.9388684     0.8816097
H          -0.4835501    -1.8041948     0.9604996
21
444_C9H8ClN3_4-5-17-18 (90,) energy =    -972.1962701
C           5.7742035     1.1504605    -0.2573032
H           6.5883938     1.8571513    -0.3846800
C           5.2055215     0.9373958     0.9987222
H           5.5688651     1.4728357     1.8730010
N           4.1966756     0.0870954     1.2095544
C           3.7140200    -0.5978370     0.1741426
C           4.2269169    -0.4577889    -1.1244342
Cl          3.5849894    -1.3805864    -2.4600171
C           5.2753491     0.4353245    -1.3422791
H           5.6822427     0.5603484    -2.3401582
C           1.3472182    -3.1178506     1.1174590
H           0.9933670    -4.0694296     1.4884214
C           2.6641408    -2.7470546     0.9271974
C           3.9459655    -3.4812331     1.1607545
H           3.7373957    -4.4544508     1.6125806
H           4.6095756    -2.9287466     1.8362054
H           4.4932125    -3.6560267     0.2258247
N           2.6186823    -1.4687506     0.4312392
N           1.3474358    -0.9862629     0.3181388
C           0.5849083    -1.9937229     0.7258145
H          -0.4913561    -1.8762297     0.7259369
21
444_C9H8ClN3_4-5-17-18 (105,) energy =    -972.1977249
C           5.7847705     1.1337727    -0.2553225
H           6.5946094     1.8500564    -0.3525784
C           5.3430456     0.7234510     1.0021170
H           5.8041162     1.1086486     1.9088330
N           4.3366113    -0.1378961     1.1770326
C           3.7415857    -0.6526864     0.1014274
C           4.1312870    -0.3182187    -1.2056828
Cl          3.3734805    -1.0401316    -2.6011374
C           5.1665411     0.5985900    -1.3822398
H           5.4779162     0.8743498    -2.3842336
C           1.3574008    -3.1120522     1.1334632
H           0.9919727    -4.0256655     1.5807381
C           2.6787670    -2.7452105     0.9768904
C           3.9484652    -3.4348997     1.3620954
H           3.7186163    -4.3924944     1.8365073
H           4.5322799    -2.8322437     2.0665553
H           4.5842198    -3.6354467     0.4906711
N           2.6509278    -1.5320945     0.3328372
N           1.3805052    -1.0801274     0.1084232
C           0.6067209    -2.0468245     0.5829402
H          -0.4690861    -1.9444541     0.5166345
21
444_C9H8ClN3_4-5-17-18 (120,) energy =    -972.1990925
C           5.7857053     1.1095308    -0.2958177
H           6.6003073     1.8205909    -0.3902157
C           5.4526588     0.5646549     0.9428168
H           6.0074571     0.8325907     1.8392695
N           4.4414063    -0.2910429     1.1149202
C           3.7306365    -0.6711921     0.0526048
C           4.0181709    -0.2098338    -1.2449641
Cl          3.1617796    -0.7845737    -2.6518290
C           5.0543585     0.7074615    -1.4106571
H           5.2847599     1.0814908    -2.4026549
C           1.3520162    -3.1204687     1.1199658
H           0.9838061    -4.0153181     1.6015435
C           2.6701728    -2.7265830     1.0208677
C           3.9232872    -3.3737225     1.5181451
H           3.6814247    -4.3396250     1.9696077
H           4.4244831    -2.7520066     2.2666305
H           4.6386615    -3.5510138     0.7057599
N           2.6507398    -1.5530894     0.3008714
N           1.3838258    -1.1607755    -0.0344617
C           0.6080484    -2.1152138     0.4569620
H          -0.4640580    -2.0488577     0.3214589
21
444_C9H8ClN3_4-5-17-18 (135,) energy =    -972.1993238
C           5.8308765     1.0686747    -0.3065523
H           6.6594517     1.7633986    -0.3994007
C           5.5778903     0.4091742     0.8933109
H           6.2128728     0.5639681     1.7629233
N           4.5520186    -0.4286090     1.0611975
C           3.7365246    -0.6777100     0.0350688
C           3.9488042    -0.1081970    -1.2376550
Cl          3.0134293    -0.5310663    -2.6490926
C           5.0011487     0.7928415    -1.3904750
H           5.1711490     1.2493702    -2.3598980
C           1.3707194    -3.1415983     1.1041463
H           1.0039760    -4.0280872     1.6020611
C           2.6773101    -2.7030985     1.0751218
C           3.9045091    -3.3068972     1.6807691
H           3.6600528    -4.2968050     2.0763796
H           4.3008858    -2.6892310     2.4916068
H           4.7061409    -3.4247662     0.9425962
N           2.6635041    -1.5571547     0.3039332
N           1.4091422    -1.2413490    -0.1421622
C           0.6372516    -2.2000422     0.3431747
H          -0.4247087    -2.1825290     0.1333561
21
444_C9H8ClN3_4-5-17-18 (150,) energy =    -972.1981870
C           5.8659471     1.0255141    -0.3351311
H           6.7112905     1.6992271    -0.4300904
C           5.6810861     0.2566287     0.8095616
H           6.3886967     0.2972360     1.6349898
N           4.6386732    -0.5586243     0.9754882
C           3.7253202    -0.6773120     0.0090508
C           3.8668260     0.0038605    -1.2220971
Cl          2.8425926    -0.2342835    -2.6171224
C           4.9420756     0.8800147    -1.3662663
H           5.0548480     1.4209032    -2.2999560
C           1.3869731    -3.1711465     1.0775177
H           1.0284801    -4.0529734     1.5895152
C           2.6724045    -2.6770028     1.1151515
C           3.8661988    -3.2284413     1.8287455
H           3.6117676    -4.2148047     2.2282783
H           4.1841455    -2.5831768     2.6518968
H           4.7268275    -3.3402882     1.1608279
N           2.6573239    -1.5528095     0.3026492
N           1.4237713    -1.3256985    -0.2432769
C           0.6639641    -2.2969422     0.2318385
H          -0.3812816    -2.3370349    -0.0472691
21
444_C9H8ClN3_4-5-17-18 (165,) energy =    -972.1961487
C           5.9044523     0.9770384    -0.3717066
H           6.7657285     1.6302578    -0.4651304
C           5.7806843     0.0876938     0.6894716
H           6.5514293     0.0091206     1.4535922
N           4.7256603    -0.7108917     0.8439064
C           3.7255200    -0.6958880    -0.0406938
C           3.7889584     0.1316024    -1.1905824
Cl          2.6461503     0.1510966    -2.5141039
C           4.8886988     0.9804080    -1.3224725
H           4.9410398     1.6271073    -2.1919182
C           1.4103263    -3.2068419     1.0535068
H           1.0530951    -4.0683214     1.5998841
C           2.6705240    -2.6593306     1.1435305
C           3.8118414    -3.1391184     1.9845694
H           3.5154410    -4.0790547     2.4610488
H           4.0834312    -2.4187767     2.7605266
H           4.7135483    -3.3190288     1.3916604
N           2.6676180    -1.5823609     0.2599726
N           1.4640285    -1.4501047    -0.3769389
C           0.7126177    -2.4210506     0.1074735
H          -0.3078350    -2.5247920    -0.2389365
21
444_C9H8ClN3_4-5-17-18 (180,) energy =    -972.1949875
C           5.9483735     0.9171932    -0.4328739
H           6.8240807     1.5492778    -0.5364283
C           5.8862255    -0.0880622     0.5244181
H           6.7158822    -0.2749221     1.2034324
N           4.8248647    -0.8778725     0.6732324
C           3.7491855    -0.7384171    -0.1054390
C           3.7158926     0.2608691    -1.1136914
Cl          2.4042542     0.5927854    -2.2230775
C           4.8380698     1.0792735    -1.2546380
H           4.8215053     1.8455097    -2.0223336
C           1.4448298    -3.2519832     1.0146916
H           1.0727986    -4.0744671     1.6091660
C           2.6762313    -2.6517298     1.1514710
C           3.7419032    -3.0091696     2.1403179
H           3.3762173    -3.8446641     2.7461886
H           3.9873730    -2.1750370     2.8032148
H           4.6740192    -3.3086159     1.6538355
N           2.7084450    -1.6518730     0.1781544
N           1.5491248    -1.6163697    -0.5475173
C           0.7966665    -2.5753186    -0.0432888
H          -0.1884494    -2.7491619    -0.4573449
