27
382_C13H13N_0-3-11-9 (-165,) energy =    -557.9614120
C           1.1113166    -0.5319661    -0.9801928
H           0.7679632     0.4151435    -0.5417763
H           1.4507310    -0.2967178    -2.0036003
N           2.1891241    -1.0504086    -0.1467781
H           2.3154006    -2.0510981    -0.2405868
C           5.8069984     1.0268693     0.4945636
H           6.7387884     1.5550567     0.6738571
C           5.6917074    -0.3345387     0.7936553
H           6.5386370    -0.8749262     1.2093764
C           4.5003585    -1.0129384     0.5657266
H           4.4195823    -2.0703728     0.8103156
C           3.3815561    -0.3460341     0.0264115
C           3.5046994     1.0208147    -0.2817582
H           2.6686969     1.5641760    -0.7090985
C           4.7053836     1.6915125    -0.0414379
H           4.7750715     2.7485153    -0.2867504
C          -2.2109742    -3.2965735    -1.1349483
H          -3.0486109    -3.9879469    -1.1721405
C          -1.6939344    -2.8859583     0.0966945
H          -2.1302235    -3.2560750     1.0208664
C          -0.6203341    -1.9978272     0.1451803
H          -0.2159172    -1.6798929     1.1024636
C          -0.0452054    -1.5084590    -1.0366789
C          -0.5664642    -1.9299796    -2.2644471
H          -0.1245397    -1.5621213    -3.1877757
C          -1.6451909    -2.8158741    -2.3157811
H          -2.0379655    -3.1329508    -3.2782707
27
382_C13H13N_0-3-11-9 (-150,) energy =    -557.9608932
C           1.1133287    -0.5488099    -0.9952281
H           0.7474993     0.4306191    -0.6598771
H           1.5300551    -0.3979935    -2.0052004
N           2.1271305    -1.0091980    -0.0460833
H           2.2515411    -2.0146047    -0.0944086
C           5.8125788     0.9980492     0.4389840
H           6.7612694     1.5086544     0.5756179
C           5.7128097    -0.3818693     0.6368744
H           6.5893552    -0.9561302     0.9266217
C           4.5002438    -1.0387197     0.4551274
H           4.4364015    -2.1144545     0.6087581
C           3.3426351    -0.3275843     0.0838313
C           3.4507730     1.0590985    -0.1251233
H           2.5812596     1.6361543    -0.4223517
C           4.6734684     1.7060232     0.0562546
H           4.7306529     2.7792314    -0.1085581
C          -2.2236287    -3.2945334    -1.1652074
H          -3.0651881    -3.9808855    -1.2067893
C          -1.7746884    -2.8077796     0.0653753
H          -2.2679604    -3.1137618     0.9843439
C          -0.6961083    -1.9259711     0.1193848
H          -0.3439870    -1.5492957     1.0759529
C          -0.0477104    -1.5192948    -1.0559071
C          -0.5005887    -2.0172479    -2.2822733
H          -0.0013663    -1.7144864    -3.2000317
C          -1.5843785    -2.8965488    -2.3393279
H          -1.9236488    -3.2734088    -3.3006237
27
382_C13H13N_0-3-11-9 (-135,) energy =    -557.9597486
C           1.1974144    -0.6656227    -1.0886870
H           0.8696956     0.3688596    -0.9285541
H           1.6850743    -0.6882168    -2.0776586
N           2.1237009    -1.0246148    -0.0090392
H           2.2774388    -2.0285665    -0.0004891
C           5.7803285     1.0466703     0.4700692
H           6.7193773     1.5756250     0.6040471
C           5.7352708    -0.3471075     0.5361547
H           6.6443366    -0.9149337     0.7181459
C           4.5331594    -1.0264126     0.3520447
H           4.5129238    -2.1140793     0.3912002
C           3.3364345    -0.3244597     0.1233219
C           3.3889167     1.0790829     0.0539510
H           2.4806622     1.6482497    -0.1182237
C           4.5989253     1.7492187     0.2247330
H           4.6141395     2.8349443     0.1697612
C          -2.2901318    -3.2245586    -1.1158773
H          -3.1700152    -3.8623884    -1.1234249
C          -1.8192473    -2.6916131     0.0867573
H          -2.3337618    -2.9129216     1.0183523
C          -0.6904050    -1.8729450     0.0979696
H          -0.3194082    -1.4617624     1.0325639
C          -0.0131540    -1.5768130    -1.0935466
C          -0.4882345    -2.1211336    -2.2918308
H           0.0338629    -1.9058378    -3.2216364
C          -1.6218197    -2.9365650    -2.3061020
H          -1.9767469    -3.3511947    -3.2460072
27
382_C13H13N_0-3-11-9 (-120,) energy =    -557.9585709
C           1.3053077    -0.8109424    -1.1508268
H           1.0540671     0.2561895    -1.1295737
H           1.8401574    -0.9838522    -2.1000272
N           2.1509266    -1.0934558     0.0199546
H           2.3403248    -2.0917554     0.0627509
C           5.7367052     1.1083413     0.4822142
H           6.6550521     1.6738574     0.6112668
C           5.7732630    -0.2820875     0.3705066
H           6.7238395    -0.8084615     0.4049785
C           4.5956184    -1.0072955     0.1914063
H           4.6358080    -2.0899112     0.0857658
C           3.3512560    -0.3579133     0.1553870
C           3.3215317     1.0418095     0.2742148
H           2.3662077     1.5589935     0.2673086
C           4.5033738     1.7628380     0.4287311
H           4.4576007     2.8450243     0.5217107
C          -2.3559914    -3.1135183    -1.0991548
H          -3.2796655    -3.6861031    -1.0876062
C          -1.8955486    -2.4999403     0.0687455
H          -2.4616479    -2.5936571     0.9920132
C          -0.7104030    -1.7653525     0.0560560
H          -0.3441154    -1.2955179     0.9642578
C           0.0337923    -1.6344584    -1.1247891
C          -0.4311976    -2.2593250    -2.2872071
H           0.1426179    -2.1729223    -3.2075390
C          -1.6205956    -2.9911887    -2.2782792
H          -1.9668360    -3.4703357    -3.1903900
27
382_C13H13N_0-3-11-9 (-105,) energy =    -557.9572030
C           1.3695444    -0.9058496    -1.1455343
H           1.1690121     0.1689994    -1.2388834
H           1.9528816    -1.1878280    -2.0390157
N           2.1298840    -1.1009564     0.1010640
H           2.3208868    -2.0951309     0.2096453
C           5.7101203     1.1389338     0.4325532
H           6.6238545     1.7193085     0.5246716
C           5.7679487    -0.2330586     0.1866368
H           6.7297860    -0.7281549     0.0795493
C           4.5931188    -0.9755561     0.0561378
H           4.6439700    -2.0416968    -0.1568475
C           3.3411881    -0.3625919     0.2087025
C           3.2901770     1.0172994     0.4597404
H           2.3227735     1.4937940     0.5934863
C           4.4644318     1.7596665     0.5621985
H           4.4073022     2.8267622     0.7613765
C          -2.3890947    -3.0479827    -1.1252224
H          -3.3368251    -3.5799736    -1.1226875
C          -1.9610391    -2.3694884     0.0187976
H          -2.5767494    -2.3719797     0.9147119
C          -0.7449355    -1.6870994     0.0174581
H          -0.4030145    -1.1676973     0.9078389
C           0.0632273    -1.6738764    -1.1278132
C          -0.3698415    -2.3636792    -2.2657153
H           0.2532446    -2.3692442    -3.1577105
C          -1.5898255    -3.0432664    -2.2686575
H          -1.9103698    -3.5739662    -3.1614570
27
382_C13H13N_0-3-11-9 (-90,) energy =    -557.9556381
C           1.4863766    -1.5690096     0.0381436
H           2.1809809    -2.4170286     0.1675595
H           1.3620062    -1.1226523     1.0337944
N           2.0385317    -0.5175871    -0.8374317
H           2.1691481    -0.9215526    -1.7640945
C           5.6761951     1.2287825     0.4657812
H           6.6027645     1.6915880     0.7941597
C           4.4462026     1.7304898     0.8999085
H           4.4137935     2.5921428     1.5617505
C           3.2562005     1.1492346     0.4651611
H           2.2944884     1.5539996     0.7679130
C           3.2792014     0.0357589    -0.3855671
C           4.5155000    -0.4621263    -0.8187217
H           4.5416646    -1.3199374    -1.4880752
C           5.7060428     0.1362840    -0.4017723
H           6.6571480    -0.2568106    -0.7517910
C          -2.3415858    -3.0249938    -1.3569846
H          -3.3058471    -3.3903274    -1.7004747
C          -1.3880887    -3.9164981    -0.8644596
H          -1.6046923    -4.9809346    -0.8245051
C          -0.1480870    -3.4438400    -0.4298521
H           0.5946559    -4.1443159    -0.0534684
C           0.1532597    -2.0777842    -0.4719600
C          -0.8097538    -1.1901542    -0.9713969
H          -0.5717794    -0.1318226    -1.0216567
C          -2.0468495    -1.6603362    -1.4112167
H          -2.7833477    -0.9601475    -1.7973890
27
382_C13H13N_0-3-11-9 (-75,) energy =    -557.9573675
C           1.4616340    -1.5634642     0.0902795
H           2.1135977    -2.4205495     0.3313332
H           1.3001713    -1.0281426     1.0346290
N           2.1024869    -0.6193618    -0.8420568
H           2.2633862    -1.0984938    -1.7259440
C           5.6685019     1.2732488     0.4388276
H           6.5774256     1.7742266     0.7598348
C           4.4351628     1.6221971     0.9969730
H           4.3812569     2.4052041     1.7490960
C           3.2655478     0.9945325     0.5754407
H           2.3025054     1.2944657     0.9796548
C           3.3120733    -0.0227187    -0.3911916
C           4.5519438    -0.3677745    -0.9474464
H           4.5996378    -1.1499916    -1.7027849
C           5.7186507     0.2826498    -0.5418798
H           6.6696914     0.0048022    -0.9891231
C          -2.3425823    -3.0009430    -1.3858538
H          -3.3012635    -3.3610746    -1.7497922
C          -1.4485878    -3.8804946    -0.7746878
H          -1.7060371    -4.9305154    -0.6621983
C          -0.2151288    -3.4151866    -0.3140608
H           0.4816540    -4.1067917     0.1551067
C           0.1378517    -2.0677585    -0.4484195
C          -0.7653218    -1.1921553    -1.0667594
H          -0.4867044    -0.1495647    -1.1884937
C          -1.9954106    -1.6555047    -1.5325241
H          -2.6853545    -0.9651459    -2.0112133
27
382_C13H13N_0-3-11-9 (-60,) energy =    -557.9587773
C           1.3958397    -1.4971733     0.1769423
H           2.0074382    -2.3337362     0.5548868
H           1.1661021    -0.8676376     1.0448819
N           2.1283009    -0.6698131    -0.7942481
H           2.2887009    -1.2096034    -1.6411303
C           5.6915263     1.2860942     0.3855514
H           6.6015479     1.8015064     0.6787907
C           4.4992035     1.5033313     1.0813613
H           4.4769477     2.1991830     1.9163318
C           3.3262497     0.8539854     0.7045509
H           2.3992398     1.0602614     1.2318790
C           3.3276546    -0.0544103    -0.3682791
C           4.5288452    -0.2677150    -1.0629187
H           4.5450619    -0.9659189    -1.8978571
C           5.6949643     0.4028436    -0.6942977
H           6.6119278     0.2225368    -1.2497355
C          -2.3053643    -3.0244218    -1.4608779
H          -3.2385018    -3.4064836    -1.8663934
C          -1.4679206    -3.8590632    -0.7204804
H          -1.7438753    -4.8961386    -0.5480938
C          -0.2668917    -3.3659004    -0.2061206
H           0.3862416    -4.0229295     0.3643917
C           0.1089334    -2.0345031    -0.4158552
C          -0.7375275    -1.2038861    -1.1634799
H          -0.4418351    -0.1741282    -1.3421562
C          -1.9347759    -1.6955419    -1.6825083
H          -2.5808330    -1.0402389    -2.2611746
27
382_C13H13N_0-3-11-9 (-45,) energy =    -557.9599617
C           1.2819243    -1.3500561     0.2615676
H           1.8547409    -2.1261546     0.7960127
H           0.9593744    -0.6253236     1.0193317
N           2.1015616    -0.6424384    -0.7280857
H           2.2230583    -1.2157049    -1.5576067
C           5.7364506     1.2344223     0.3424600
H           6.6673689     1.7283913     0.6050148
C           4.6212484     1.3318108     1.1767175
H           4.6790962     1.9105470     2.0952840
C           3.4216936     0.7033628     0.8468672
H           2.5629031     0.8112378     1.5020281
C           3.3165707    -0.0563248    -0.3320622
C           4.4440340    -0.1504352    -1.1674002
H           4.3793612    -0.7326305    -2.0849351
C           5.6344069     0.4918187    -0.8354114
H           6.4902035     0.4013839    -1.4997680
C          -2.2332246    -3.1059522    -1.5473799
H          -3.1198070    -3.5449320    -1.9972054
C          -1.4503770    -3.8523834    -0.6664210
H          -1.7223309    -4.8773764    -0.4282380
C          -0.3087727    -3.2869277    -0.0943659
H           0.3025164    -3.8756962     0.5861524
C           0.0606824    -1.9694250    -0.3867278
C          -0.7314662    -1.2272474    -1.2743843
H          -0.4436507    -0.2072282    -1.5131200
C          -1.8686371    -1.7918171    -1.8511449
H          -2.4729272    -1.2045535    -2.5378044
27
382_C13H13N_0-3-11-9 (-30,) energy =    -557.9610208
C           1.1953195    -1.2224445     0.2991294
H           1.7059749    -1.9248971     0.9790646
H           0.8265269    -0.3976705     0.9233793
N           2.1048706    -0.6669711    -0.7025572
H           2.2031786    -1.2842298    -1.5012288
C           5.7573565     1.1855022     0.3298988
H           6.6949210     1.6721239     0.5820053
C           4.6952523     1.1782541     1.2336481
H           4.8012922     1.6640577     2.2005905
C           3.4874417     0.5539142     0.9205428
H           2.6783196     0.5660696     1.6434028
C           3.3188116    -0.0856180    -0.3208535
C           4.3961816    -0.0757143    -1.2282904
H           4.2815198    -0.5643508    -2.1941697
C           5.5943297     0.5523591    -0.9054896
H           6.4093348     0.5423194    -1.6250302
C          -2.1825393    -3.1684948    -1.5737929
H          -3.0342562    -3.6545854    -2.0421137
C          -1.4266731    -3.8461008    -0.6171758
H          -1.6848698    -4.8642730    -0.3381176
C          -0.3302830    -3.2198840    -0.0198471
H           0.2597740    -3.7546011     0.7211401
C           0.0195875    -1.9097053    -0.3634474
C          -0.7458216    -1.2367662    -1.3269968
H          -0.4746754    -0.2215934    -1.6041810
C          -1.8374154    -1.8616546    -1.9285213
H          -2.4219244    -1.3275760    -2.6731996
27
382_C13H13N_0-3-11-9 (-15,) energy =    -557.9614036
C           1.1966946    -1.2041004     0.2979176
H           1.6415445    -1.8735102     1.0542978
H           0.8389611    -0.3178642     0.8400233
N           2.1713771    -0.7643031    -0.6916830
H           2.2778225    -1.4109441    -1.4637521
C           5.7469884     1.2360568     0.3198725
H           6.6663769     1.7584893     0.5671335
C           4.7356504     1.0914660     1.2678667
H           4.8641787     1.5007822     2.2669984
C           3.5523031     0.4161790     0.9627428
H           2.7890198     0.3107979     1.7262748
C           3.3535168    -0.1225947    -0.3212585
C           4.3818680     0.0244099    -1.2744114
H           4.2419847    -0.3865970    -2.2723876
C           5.5579167     0.6922936    -0.9549163
H           6.3344302     0.7896698    -1.7096966
C          -2.1721016    -3.1567823    -1.5846848
H          -3.0215580    -3.6440299    -2.0559019
C          -1.4817745    -3.7925916    -0.5528490
H          -1.7888963    -4.7797068    -0.2174907
C          -0.3883403    -3.1646263     0.0480496
H           0.1505938    -3.6668257     0.8483557
C           0.0240662    -1.8942078    -0.3677409
C          -0.6757332    -1.2630505    -1.4064764
H          -0.3570920    -0.2788216    -1.7393864
C          -1.7643370    -1.8900141    -2.0111177
H          -2.2980365    -1.3886011    -2.8143375
27
382_C13H13N_0-3-11-9 (0,) energy =    -557.9606945
C           1.2160000    -1.2635294     0.3243044
H           1.5809541    -1.9203818     1.1335014
H           0.8948527    -0.3294443     0.8064011
N           2.2541834    -0.9322063    -0.6348866
H           2.3681433    -1.5930098    -1.3914134
C           5.6938308     1.3276682     0.2823552
H           6.5797385     1.9144149     0.5065971
C           4.7498156     1.0599804     1.2720021
H           4.9006914     1.4336273     2.2819576
C           3.6118273     0.2990624     0.9963517
H           2.9059180     0.0871868     1.7925190
C           3.3839669    -0.1910834    -0.3025607
C           4.3464811     0.0774211    -1.2977567
H           4.1837690    -0.2983682    -2.3059223
C           5.4823455     0.8222331    -1.0049925
H           6.2073876     1.0154312    -1.7918889
C          -2.1865494    -3.1099178    -1.6065392
H          -3.0442677    -3.5704190    -2.0895215
C          -1.5784422    -3.7314832    -0.5159571
H          -1.9582351    -4.6804376    -0.1465610
C          -0.4740440    -3.1387630     0.1005722
H           0.0007818    -3.6296924     0.9471613
C           0.0316572    -1.9180741    -0.3584306
C          -0.5859096    -1.3015157    -1.4561959
H          -0.1935325    -0.3562871    -1.8218023
C          -1.6857587    -1.8927263    -2.0762848
H          -2.1551736    -1.4023119    -2.9251724
27
382_C13H13N_0-3-11-9 (15,) energy =    -557.9614020
C           1.0184102    -0.7311547     0.0547521
H           1.1152306    -0.9003710     1.1361117
H           0.7221068     0.3246781    -0.0698433
N           2.3059941    -1.0202093    -0.5629777
H           2.2329587    -1.2475925    -1.5472218
C           5.8482368     1.0562546     0.4122619
H           6.7676477     1.5779789     0.6609477
C           4.7208216     1.1799204     1.2223449
H           4.7553994     1.8059541     2.1106999
C           3.5315196     0.5191620     0.9088185
H           2.6679957     0.6442985     1.5533028
C           3.4548014    -0.3004251    -0.2317100
C           4.5978212    -0.4186695    -1.0484023
H           4.5538629    -1.0501040    -1.9337428
C           5.7728443     0.2511395    -0.7290004
H           6.6385661     0.1424387    -1.3777295
C          -2.0807177    -3.3160684    -1.4994067
H          -2.8600227    -3.9678524    -1.8852214
C          -0.8878999    -3.8599139    -1.0154665
H          -0.7376969    -4.9364118    -1.0219410
C           0.1122177    -3.0250706    -0.5188892
H           1.0412502    -3.4464343    -0.1442687
C          -0.0636735    -1.6338026    -0.5011654
C          -1.2590652    -1.0989481    -0.9930955
H          -1.4043968    -0.0209742    -0.9906636
C          -2.2646339    -1.9334052    -1.4864352
H          -3.1873353    -1.5014355    -1.8649102
27
382_C13H13N_0-3-11-9 (30,) energy =    -557.9610206
C           1.0187275    -0.7158374     0.0391560
H           1.0484958    -0.8094098     1.1327346
H           0.7718808     0.3369217    -0.1782514
N           2.3301014    -1.0941336    -0.4869866
H           2.2792172    -1.3497523    -1.4672559
C           5.8388751     1.0889292     0.3885394
H           6.7500313     1.6357162     0.6126132
C           4.7690965     1.0940947     1.2831850
H           4.8434277     1.6481804     2.2157470
C           3.5930451     0.3972321     1.0037136
H           2.7782367     0.4187077     1.7198963
C           3.4642413    -0.3272960    -0.1948495
C           4.5480189    -0.3269285    -1.0945957
H           4.4651673    -0.8844805    -2.0257874
C           5.7160400     0.3697348    -0.8036524
H           6.5355344     0.3536654    -1.5179621
C          -2.0838650    -3.3085995    -1.4951050
H          -2.8646513    -3.9614953    -1.8760536
C          -0.9361809    -3.8528835    -0.9125288
H          -0.8227411    -4.9313023    -0.8376912
C           0.0654529    -3.0161791    -0.4221528
H           0.9600073    -3.4381131     0.0279634
C          -0.0635820    -1.6223275    -0.5091431
C          -1.2133802    -1.0874197    -1.0998033
H          -1.3216134    -0.0079835    -1.1791450
C          -2.2206373    -1.9235049    -1.5870254
H          -3.1076650    -1.4912288    -2.0425988
27
382_C13H13N_0-3-11-9 (45,) energy =    -557.9599616
C           1.0179274    -0.6505847    -0.0906456
H           0.9807973    -0.5883305     1.0039902
H           0.8195380     0.3664799    -0.4678815
N           2.3487232    -1.1323859    -0.4762136
H           2.3482107    -1.4243619    -1.4489472
C           5.8467879     1.0644275     0.4286935
H           6.7541574     1.6137100     0.6622079
C           4.8231866     0.9504169     1.3712672
H           4.9333869     1.4093279     2.3507055
C           3.6563441     0.2454758     1.0811828
H           2.8841033     0.1537864     1.8385721
C           3.4819005    -0.3553842    -0.1784581
C           4.5168272    -0.2361993    -1.1231706
H           4.3995897    -0.6969970    -2.1024275
C           5.6844061     0.4595224    -0.8190649
H           6.4678397     0.5359767    -1.5689362
C          -2.0952239    -3.3423614    -1.4223485
H          -2.8800677    -4.0182447    -1.7514010
C          -0.9495787    -3.8457081    -0.8007902
H          -0.8416468    -4.9158211    -0.6434513
C           0.0579902    -2.9794483    -0.3778196
H           0.9517104    -3.3693696     0.1012523
C          -0.0632885    -1.5960991    -0.5725571
C          -1.2110802    -1.1024052    -1.2023156
H          -1.3128534    -0.0318757    -1.3667428
C          -2.2239249    -1.9676454    -1.6215626
H          -3.1086598    -1.5668518    -2.1093199
27
382_C13H13N_0-3-11-9 (60,) energy =    -557.9587772
C           1.0408538    -0.5853612    -0.2831543
H           0.9829714    -0.3538074     0.7870704
H           0.8826477     0.3679371    -0.8150312
N           2.3726126    -1.1522641    -0.5462841
H           2.4263938    -1.4450979    -1.5187209
C           5.8313362     1.0482155     0.5064319
H           6.7264948     1.5984542     0.7815653
C           4.8640254     0.7443727     1.4681963
H           5.0096090     1.0511779     2.5009404
C           3.7185703     0.0303792     1.1252109
H           2.9928602    -0.2302538     1.8903029
C           3.5025226    -0.3746115    -0.2034547
C           4.4784908    -0.0661802    -1.1642917
H           4.3266978    -0.3760423    -2.1966675
C           5.6339787     0.6298709    -0.8097229
H           6.3762566     0.8543809    -1.5716134
C          -2.1263094    -3.3554671    -1.2877198
H          -2.9252593    -4.0498074    -1.5341365
C          -0.9924757    -3.8028370    -0.6046118
H          -0.9079300    -4.8477877    -0.3172198
C           0.0338577    -2.9134365    -0.2882206
H           0.9211032    -3.2595486     0.2340542
C          -0.0570827    -1.5625185    -0.6517701
C          -1.1927605    -1.1257537    -1.3427052
H          -1.2707913    -0.0817004    -1.6387086
C          -2.2242298    -2.0135270    -1.6560527
H          -3.0990705    -1.6569262    -2.1935407
27
382_C13H13N_0-3-11-9 (75,) energy =    -557.9573674
C           1.0764461    -0.5811954    -0.4068308
H           0.9896460    -0.2176207     0.6250209
H           0.9774209     0.3070217    -1.0541595
N           2.3979601    -1.2203910    -0.5342107
H           2.4997311    -1.5629597    -1.4876229
C           5.7905288     1.0767406     0.5394200
H           6.6679698     1.6512125     0.8226939
C           4.9121122     0.6010744     1.5174421
H           5.1109208     0.7972673     2.5680038
C           3.7956923    -0.1506935     1.1595228
H           3.1357498    -0.5549690     1.9223040
C           3.5167318    -0.4121745    -0.1914529
C           4.4017690     0.0672264    -1.1674936
H           4.1997166    -0.1352799    -2.2176539
C           5.5344299     0.7972320    -0.8029271
H           6.2116663     1.1555393    -1.5740778
C          -2.1629733    -3.3340104    -1.2107313
H          -2.9805030    -4.0228296    -1.4066681
C          -1.0584363    -3.7486072    -0.4621710
H          -1.0152533    -4.7627571    -0.0730790
C          -0.0083654    -2.8660868    -0.2106718
H           0.8571362    -3.1873606     0.3612849
C          -0.0456463    -1.5551691    -0.7055195
C          -1.1519671    -1.1519541    -1.4616192
H          -1.1879186    -0.1399623    -1.8597696
C          -2.2072612    -2.0321220    -1.7101795
H          -3.0586230    -1.7018806    -2.2997547
27
382_C13H13N_0-3-11-9 (90,) energy =    -557.9556381
C           1.1073147    -0.6013083    -0.4511651
H           0.9794452    -0.1453821     0.5396947
H           1.0793658     0.2302058    -1.1765358
N           2.4096384    -1.2947229    -0.4395272
H           2.5465534    -1.7145992    -1.3581744
C           5.7615225     1.1176996     0.5226675
H           6.6270927     1.7227379     0.7781447
C           5.0142830     0.4979963     1.5279837
H           5.3033449     0.6133775     2.5694549
C           3.9143830    -0.2932910     1.2007978
H           3.3486708    -0.8085020     1.9721023
C           3.5254106    -0.4504461    -0.1364011
C           4.2793276     0.1722283    -1.1403091
H           3.9901702     0.0463424    -2.1819900
C           5.3952427     0.9446853    -0.8126224
H           5.9743272     1.4157620    -1.6028033
C          -2.1852307    -3.3036270    -1.2099157
H          -3.0162058    -3.9792651    -1.3949759
C          -1.1363200    -3.6919922    -0.3726223
H          -1.1499940    -4.6725473     0.0965746
C          -0.0690896    -2.8263483    -0.1347190
H           0.7538620    -3.1276865     0.5065103
C          -0.0330176    -1.5588680    -0.7321421
C          -1.0839881    -1.1824066    -1.5761985
H          -1.0628646    -0.2049161    -2.0537649
C          -2.1564096    -2.0451867    -1.8115912
H          -2.9639714    -1.7360114    -2.4702200
27
382_C13H13N_0-3-11-9 (105,) energy =    -557.9572033
C           1.1107139    -0.7747469    -0.0755254
H           1.1500822    -0.7925340     1.0272826
H           0.9625028     0.2750676    -0.3585536
N           2.3772704    -1.2160907    -0.6854904
H           2.5313898    -2.1915825    -0.4377025
C           5.7823356     1.1111094     0.2804546
H           6.6559567     1.7112044     0.5189405
C           5.6197858    -0.1528268     0.8480861
H           6.3646183    -0.5415367     1.5379160
C           4.4910474    -0.9184735     0.5510122
H           4.3590287    -1.8950963     1.0129460
C           3.5258590    -0.4464879    -0.3500442
C           3.6977275     0.8242517    -0.9205433
H           2.9598830     1.1871687    -1.6309420
C           4.8118543     1.5967906    -0.6005959
H           4.9319370     2.5770966    -1.0547310
C          -2.2693943    -3.0996086    -1.4493188
H          -3.1225049    -3.6772435    -1.7953863
C          -2.1509281    -2.7616892    -0.1009538
H          -2.9103256    -3.0770194     0.6099334
C          -1.0500341    -2.0247217     0.3407571
H          -0.9585436    -1.7700772     1.3946584
C          -0.0600589    -1.6082660    -0.5563048
C          -0.1858316    -1.9554044    -1.9085451
H           0.5900374    -1.6490309    -2.6039626
C          -1.2814481    -2.6959236    -2.3511554
H          -1.3650961    -2.9588807    -3.4026401
27
382_C13H13N_0-3-11-9 (120,) energy =    -557.9585708
C           1.0586724    -0.6838918    -0.1276037
H           1.0349027    -0.5835941     0.9707211
H           0.9234607     0.3265165    -0.5314981
N           2.3551636    -1.1868659    -0.6091040
H           2.4737436    -2.1502938    -0.3056838
C           5.8296405     1.0700938     0.2594486
H           6.7248209     1.6472179     0.4725519
C           5.7128355    -0.2452050     0.7105387
H           6.5162252    -0.6989513     1.2854497
C           4.5580362    -0.9818668     0.4485202
H           4.4677155    -2.0006431     0.8210474
C           3.5084900    -0.4281250    -0.3019683
C           3.6353108     0.8948606    -0.7578457
H           2.8410526     1.3328250    -1.3557641
C           4.7812053     1.6337210    -0.4722536
H           4.8600403     2.6547894    -0.8370449
C          -2.2311385    -3.1690777    -1.4381495
H          -3.0609173    -3.7876025    -1.7699398
C          -2.1765384    -2.7142928    -0.1205213
H          -2.9631659    -2.9791588     0.5812309
C          -1.1052407    -1.9245522     0.3028132
H          -1.0636874    -1.5785527     1.3334797
C          -0.0814292    -1.5717722    -0.5832817
C          -0.1432352    -2.0358037    -1.9047401
H           0.6581121    -1.7777744    -2.5910146
C          -1.2092087    -2.8287698    -2.3282218
H          -1.2433163    -3.1821448    -3.3556581
27
382_C13H13N_0-3-11-9 (135,) energy =    -557.9597486
C           1.0061532    -0.5658801    -0.2689789
H           0.9317260    -0.3138427     0.8021550
H           0.8718066     0.3739928    -0.8183348
N           2.3217327    -1.1148322    -0.6159634
H           2.3920777    -2.0779356    -0.3011390
C           5.8569497     1.0162469     0.3069394
H           6.7700285     1.5580737     0.5355676
C           5.7584151    -0.3513137     0.5697180
H           6.5968289    -0.8843297     1.0111939
C           4.5830486    -1.0438680     0.2880212
H           4.5128182    -2.1070481     0.5109055
C           3.4818200    -0.3888070    -0.2910693
C           3.5857248     0.9895245    -0.5497773
H           2.7530354     1.5215592    -0.9993175
C           4.7606454     1.6769361    -0.2508278
H           4.8184542     2.7417753    -0.4625513
C          -2.1898421    -3.2678059    -1.3638404
H          -2.9959763    -3.9417651    -1.6413524
C          -2.1879120    -2.6541149    -0.1110176
H          -2.9915407    -2.8496307     0.5941520
C          -1.1474920    -1.7930366     0.2442906
H          -1.1466831    -1.3230195     1.2253908
C          -0.1023813    -1.5270455    -0.6472619
C          -0.1119090    -2.1495213    -1.9036490
H           0.7026744    -1.9550382    -2.5956074
C          -1.1469316    -3.0141522    -2.2583106
H          -1.1407516    -3.4899483    -3.2356262
27
382_C13H13N_0-3-11-9 (150,) energy =    -557.9608941
C           0.9956881    -0.4784252    -0.4247847
H           0.8583862    -0.0565776     0.5849603
H           0.9138810     0.3613419    -1.1272660
N           2.3157582    -1.0874299    -0.5909699
H           2.3327868    -2.0377471    -0.2368708
C           5.8695282     0.9904518     0.3592338
H           6.7897623     1.5165060     0.5955348
C           5.7925081    -0.3992992     0.4854083
H           6.6562767    -0.9649872     0.8259388
C           4.6124833    -1.0739629     0.1901257
H           4.5641538    -2.1562507     0.2960107
C           3.4742247    -0.3756472    -0.2574132
C           3.5533354     1.0239266    -0.3717328
H           2.6920282     1.5947042    -0.7030293
C           4.7412972     1.6898147    -0.0688420
H           4.7781311     2.7719447    -0.1680316
C          -2.1479241    -3.3218331    -1.2818483
H          -2.9396219    -4.0334824    -1.5004968
C          -2.1536086    -2.6135474    -0.0802582
H          -2.9485986    -2.7724875     0.6435782
C          -1.1326638    -1.7021889     0.1994830
H          -1.1378723    -1.1562805     1.1403035
C          -0.1002526    -1.4814882    -0.7182945
C          -0.1023082    -2.1992194    -1.9232853
H           0.7015667    -2.0387956    -2.6367005
C          -1.1173899    -3.1132336    -2.2023955
H          -1.1065496    -3.6618603    -3.1406579
27
382_C13H13N_0-3-11-9 (165,) energy =    -557.9614115
C           0.9899980    -0.4684220    -0.4380353
H           0.7901590     0.0306185     0.5257599
H           0.9728726     0.3188752    -1.2043012
N           2.3029682    -1.1010833    -0.4696730
H           2.2998071    -2.0397344    -0.0889200
C           5.8848913     0.9919998     0.3070370
H           6.8141321     1.5209461     0.4970093
C           5.8453764    -0.4060064     0.3260266
H           6.7491658    -0.9740826     0.5323782
C           4.6579167    -1.0857996     0.0827706
H           4.6409448    -2.1739813     0.0914438
C           3.4658741    -0.3830579    -0.1866260
C           3.5081489     1.0227711    -0.1958577
H           2.6081981     1.5969265    -0.3886541
C           4.7093938     1.6929241     0.0436032
H           4.7165100     2.7801463     0.0294907
C          -2.1428188    -3.3263777    -1.2881706
H          -2.9314295    -4.0418851    -1.5053492
C          -2.2131381    -2.5303206    -0.1449299
H          -3.0558251    -2.6244413     0.5349279
C          -1.1961689    -1.6141475     0.1332481
H          -1.2520101    -0.9996571     1.0290272
C          -0.1026760    -1.4764179    -0.7282666
C          -0.0403943    -2.2815957    -1.8749243
H           0.8096391    -2.1843178    -2.5450070
C          -1.0517497    -3.2004089    -2.1521348
H          -0.9906732    -3.8170983    -3.0450983
27
382_C13H13N_0-3-11-9 (180,) energy =    -557.9607993
C           1.1268775    -0.5467121    -1.0494268
H           0.8329285     0.3790631    -0.5351674
H           1.3770825    -0.2598239    -2.0859483
N           2.2612577    -1.1077072    -0.3363231
H           2.3904197    -2.1032966    -0.4586251
C           5.7591149     1.0519947     0.6053138
H           6.6586017     1.6027647     0.8641195
C           5.6268304    -0.2974175     0.9505329
H           6.4264585    -0.8037652     1.4857113
C           4.4738831    -1.0027451     0.6286675
H           4.3726161    -2.0463381     0.9197089
C           3.4186468    -0.3805364    -0.0703278
C           3.5575749     0.9750450    -0.4195297
H           2.7700823     1.4836316    -0.9655797
C           4.7156444     1.6757519    -0.0757598
H           4.7995876     2.7227107    -0.3571567
C          -2.2233311    -3.2835022    -1.0782303
H          -3.0678008    -3.9675254    -1.0840529
C          -1.6039522    -2.9414431     0.1269193
H          -1.9680535    -3.3580053     1.0625090
C          -0.5212218    -2.0631597     0.1344824
H          -0.0370589    -1.7984741     1.0707651
C          -0.0393625    -1.5144306    -1.0627614
C          -0.6627009    -1.8671956    -2.2642340
H          -0.2935814    -1.4529119    -3.1998182
C          -1.7503690    -2.7435707    -2.2741401
H          -2.2227547    -3.0070877    -3.2167976
