27
382_C13H13N_3-0-22-20 (-165,) energy =    -557.9598741
C           1.2495443    -1.3238680     0.1834538
H           1.8580169    -2.1191521     0.6347460
H           0.9251774    -0.6775096     1.0186095
N           2.0840867    -0.6177660    -0.7733822
H           1.5451797    -0.0378757    -1.4069328
C           5.7626657     1.1808913     0.2639056
H           6.7141538     1.6407619     0.5139570
C           5.1739538     0.2546186     1.1226433
H           5.6661905    -0.0113884     2.0549093
C           3.9477467    -0.3380077     0.8142339
H           3.5112932    -1.0455839     1.5107753
C           3.2864334    -0.0170968    -0.3842215
C           3.8860802     0.9226867    -1.2464408
H           3.3866052     1.1796741    -2.1786881
C           5.1032721     1.5110362    -0.9244019
H           5.5411392     2.2336078    -1.6086275
C          -2.2023298    -3.2659787    -1.5689074
H          -3.0685497    -3.7636125    -1.9965138
C          -2.1269754    -3.0461473    -0.1911770
H          -2.9343767    -3.3728555     0.4589918
C          -1.0177792    -2.4023040     0.3538347
H          -0.9699511    -2.2271247     1.4269017
C           0.0346208    -1.9655158    -0.4628306
C          -0.0414712    -2.2065542    -1.8391541
H           0.7832293    -1.9102979    -2.4799589
C          -1.1562053    -2.8450845    -2.3889076
H          -1.1999776    -3.0192052    -3.4609724
27
382_C13H13N_3-0-22-20 (-150,) energy =    -557.9609158
C           1.3208638    -1.4455458     0.1818439
H           1.9638879    -2.2713175     0.5172902
H           1.0422248    -0.8848910     1.0913086
N           2.0856655    -0.6376533    -0.7556173
H           1.4983299    -0.0514585    -1.3377331
C           5.7337059     1.2316270     0.2580137
H           6.6768349     1.7111441     0.5027918
C           5.2168533     0.2243838     1.0708026
H           5.7575742    -0.0863088     1.9614874
C           4.0020540    -0.3942790     0.7689579
H           3.6219432    -1.1669879     1.4284555
C           3.2792495    -0.0169680    -0.3767463
C           3.8061807     1.0043328    -1.1927302
H           3.2587127     1.3064585    -2.0835620
C           5.0130059     1.6169728    -0.8769201
H           5.3943063     2.4029275    -1.5241633
C          -2.2188629    -3.2029302    -1.5840758
H          -3.1063712    -3.6535385    -2.0202261
C          -2.1992199    -2.8547095    -0.2321999
H          -3.0728924    -3.0317444     0.3896093
C          -1.0610252    -2.2697667     0.3230770
H          -1.0557017    -1.9917544     1.3749426
C           0.0751503    -2.0270990    -0.4589644
C           0.0500043    -2.3888844    -1.8122366
H           0.9319939    -2.2196249    -2.4230279
C          -1.0908036    -2.9673405    -2.3713466
H          -1.0950189    -3.2387715    -3.4238948
27
382_C13H13N_3-0-22-20 (-135,) energy =    -557.9613568
C           1.3795868    -1.5528204     0.1730450
H           2.0546752    -2.3909131     0.3952535
H           1.1435222    -1.0795927     1.1418132
N           2.0731042    -0.6456788    -0.7316206
H           1.4415942    -0.0484754    -1.2523018
C           5.7041307     1.2677249     0.2569667
H           6.6423191     1.7599567     0.4954445
C           5.2549492     0.1883448     1.0156513
H           5.8443576    -0.1666972     1.8575627
C           4.0472331    -0.4475181     0.7214796
H           3.7204040    -1.2778156     1.3382552
C           3.2623943    -0.0139261    -0.3620882
C           3.7211324     1.0801943    -1.1233698
H           3.1251039     1.4263630    -1.9656524
C           4.9218867     1.7085199    -0.8153760
H           5.2499880     2.5508899    -1.4194120
C          -2.2340739    -3.1425470    -1.5973911
H          -3.1397892    -3.5486746    -2.0398395
C          -2.2464445    -2.6626674    -0.2874822
H          -3.1633309    -2.6906601     0.2954189
C          -1.0819934    -2.1369484     0.2760559
H          -1.0996770    -1.7570428     1.2951721
C           0.1094813    -2.0892052    -0.4560739
C           0.1127291    -2.5758452    -1.7711374
H           1.0341357    -2.5397594    -2.3458014
C          -1.0505191    -3.0958404    -2.3381221
H          -1.0325044    -3.4687789    -3.3589407
27
382_C13H13N_3-0-22-20 (-120,) energy =    -557.9613674
C           1.4376210    -1.6659789     0.1389625
H           2.1338149    -2.5078264     0.2532301
H           1.2493312    -1.2748550     1.1534452
N           2.0645639    -0.6723137    -0.7254999
H           1.3945357    -0.0737864    -1.1930547
C           5.6529244     1.3106013     0.2764827
H           6.5798884     1.8216225     0.5193034
C           5.2733534     0.1609618     0.9671204
H           5.9066397    -0.2309202     1.7593910
C           4.0810052    -0.5003641     0.6669164
H           3.8090203    -1.3878290     1.2283921
C           3.2406481    -0.0200211    -0.3537180
C           3.6290304     1.1448110    -1.0463796
H           2.9895259     1.5278144    -1.8393908
C           4.8158060     1.7966593    -0.7330789
H           5.0894092     2.6937308    -1.2831290
C          -2.2564346    -3.0785044    -1.6089710
H          -3.1832795    -3.4354682    -2.0500672
C          -2.2669431    -2.4623051    -0.3578141
H          -3.2026411    -2.3343531     0.1800155
C          -1.0738402    -2.0032579     0.2057200
H          -1.0865958    -1.5200928     1.1801520
C           0.1417262    -2.1603090    -0.4682426
C           0.1414860    -2.7784022    -1.7271771
H           1.0812519    -2.8949623    -2.2607518
C          -1.0479271    -3.2340043    -2.2936714
H          -1.0327925    -3.7136325    -3.2689043
27
382_C13H13N_3-0-22-20 (-105,) energy =    -557.9611355
C           1.5084683    -1.7620894     0.0863149
H           2.2181551    -2.5996206     0.0918460
H           1.3728255    -1.4550098     1.1374618
N           2.0701683    -0.6865519    -0.7252380
H           1.3657334    -0.0889775    -1.1398266
C           5.6125263     1.3594993     0.3092696
H           6.5273011     1.8879280     0.5609134
C           5.2987281     0.1489908     0.9248922
H           5.9719941    -0.2737858     1.6667349
C           4.1229607    -0.5358252     0.6124070
H           3.9034907    -1.4729098     1.1130703
C           3.2320010    -0.0164479    -0.3444766
C           3.5542473     1.2094831    -0.9617461
H           2.8753277     1.6231250    -1.7050495
C           4.7256786     1.8831470    -0.6371270
H           4.9478745     2.8274274    -1.1282033
C          -2.2667259    -3.0163441    -1.6026925
H          -3.2152914    -3.3285264    -2.0313791
C          -2.2432091    -2.2606148    -0.4303667
H          -3.1728753    -1.9802508     0.0577401
C          -1.0224166    -1.8628607     0.1197878
H          -1.0069506    -1.2750086     1.0349889
C           0.1858413    -2.2194311    -0.4891802
C           0.1506530    -2.9738602    -1.6701110
H           1.0849927    -3.2454894    -2.1552171
C          -1.0658257    -3.3716635    -2.2229260
H          -1.0780316    -3.9608735    -3.1361077
27
382_C13H13N_3-0-22-20 (-90,) energy =    -557.9607682
C           1.5793087    -1.8467692     0.0022226
H           2.2922653    -2.6745149    -0.1025788
H           1.5039800    -1.6268468     1.0810696
N           2.0813988    -0.6951152    -0.7421571
H           1.3492357    -0.1053851    -1.1171448
C           5.5629700     1.4106406     0.3699251
H           6.4617359     1.9555982     0.6430610
C           5.3120547     0.1444586     0.8960752
H           6.0192455    -0.3061103     1.5883602
C           4.1578880    -0.5627637     0.5547978
H           3.9887638    -1.5456190     0.9820290
C           3.2239464    -0.0080558    -0.3395972
C           3.4831078     1.2734933    -0.8674429
H           2.7709827     1.7149370    -1.5621372
C           4.6344862     1.9677097    -0.5155675
H           4.8078399     2.9549848    -0.9368294
C          -2.2832056    -2.9716916    -1.5764508
H          -3.2543480    -3.2483357    -1.9780950
C          -2.1954754    -2.0720916    -0.5128844
H          -3.0979408    -1.6459555    -0.0826722
C          -0.9467778    -1.7224548     0.0043093
H          -0.8816194    -1.0272927     0.8388297
C           0.2272840    -2.2676529    -0.5304060
C           0.1275615    -3.1641497    -1.6017337
H           1.0340709    -3.5856581    -2.0294272
C          -1.1183480    -3.5175045    -2.1203848
H          -1.1803183    -4.2191179    -2.9480392
27
382_C13H13N_3-0-22-20 (-75,) energy =    -557.9610969
C           0.9624161    -0.4765939    -0.5651381
H           0.7238287     0.0720493     0.3620589
H           0.9870780     0.2658248    -1.3733042
N           2.2694777    -1.1229062    -0.4909795
H           2.2297628    -2.0640014    -0.1196042
C           5.7947472     0.9491234     0.5487980
H           6.7097660     1.4736388     0.8076375
C           4.6514222     1.6552890     0.1786763
H           4.6698269     2.7420977     0.1492561
C           3.4685380     0.9911346    -0.1510766
H           2.5931840     1.5683800    -0.4295429
C           3.4127848    -0.4143171    -0.1244610
C           4.5721057    -1.1225466     0.2526754
H           4.5445847    -2.2103031     0.2763020
C           5.7413704    -0.4481505     0.5835056
H           6.6199643    -1.0200433     0.8719695
C          -2.0889388    -3.4296117    -1.3704604
H          -2.8542966    -4.1736864    -1.5744082
C          -1.2379529    -3.0006524    -2.3925272
H          -1.3401130    -3.4104344    -3.3939437
C          -0.2590526    -2.0428454    -2.1312810
H           0.4051306    -1.7109729    -2.9255495
C          -0.1158983    -1.5000059    -0.8469859
C          -0.9719672    -1.9375965     0.1697926
H          -0.8723137    -1.5200145     1.1693493
C          -1.9544166    -2.8963528    -0.0883713
H          -2.6141121    -3.2233620     0.7109994
27
382_C13H13N_3-0-22-20 (-60,) energy =    -557.9613653
C           0.9499295    -0.5139518    -0.4157416
H           0.7336382    -0.0654532     0.5690429
H           0.9286440     0.3075193    -1.1444145
N           2.2723822    -1.1274098    -0.4622732
H           2.2774406    -2.0852718    -0.1332138
C           5.8151607     0.9697799     0.4664839
H           6.7344500     1.5007895     0.6951766
C           4.6337828     1.6676211     0.2214347
H           4.6263530     2.7542195     0.2609784
C           3.4450901     0.9948005    -0.0676534
H           2.5398875     1.5659263    -0.2443985
C           3.4218518    -0.4102987    -0.1282195
C           4.6195098    -1.1101478     0.1234606
H           4.6172679    -2.1975910     0.0789722
C           5.7942964    -0.4278337     0.4163031
H           6.7028359    -0.9937242     0.6072910
C          -2.1057634    -3.4015478    -1.4247673
H          -2.8738252    -4.1261174    -1.6818690
C          -1.0949168    -3.0959038    -2.3404519
H          -1.0760186    -3.5816515    -3.3125858
C          -0.1109420    -2.1647802    -2.0121067
H           0.6778920    -1.9288701    -2.7217168
C          -0.1210250    -1.5262304    -0.7634683
C          -1.1340941    -1.8424984     0.1476236
H          -1.1502439    -1.3559948     1.1203594
C          -2.1237100    -2.7726187    -0.1800868
H          -2.9046837    -3.0061309     0.5387492
27
382_C13H13N_3-0-22-20 (-45,) energy =    -557.9613385
C           0.9503737    -0.5694068    -0.3089720
H           0.7683431    -0.2232612     0.7231036
H           0.8763217     0.3202669    -0.9499387
N           2.2828871    -1.1334486    -0.4767740
H           2.3336121    -2.1105235    -0.2134423
C           5.8156167     0.9966448     0.4192438
H           6.7321309     1.5364406     0.6382825
C           4.6044228     1.6746856     0.2936241
H           4.5707178     2.7543518     0.4179268
C           3.4192565     0.9898329     0.0184291
H           2.4911315     1.5453859    -0.0628500
C           3.4294225    -0.4064372    -0.1499841
C           4.6572177    -1.0863629    -0.0185622
H           4.6808873    -2.1668461    -0.1471538
C           5.8285313    -0.3930690     0.2622408
H           6.7608086    -0.9440203     0.3592483
C          -2.1337191    -3.3726607    -1.4699321
H          -2.9111383    -4.0728054    -1.7638788
C          -0.9986762    -3.2079548    -2.2673045
H          -0.8914735    -3.7787796    -3.1860851
C          -0.0004247    -2.3094172    -1.8911890
H           0.8824568    -2.1802826    -2.5111435
C          -0.1207467    -1.5637300    -0.7098940
C          -1.2582373    -1.7412564     0.0856755
H          -1.3586255    -1.1759652     1.0095990
C          -2.2616154    -2.6355829    -0.2921953
H          -3.1381649    -2.7609844     0.3380317
27
382_C13H13N_3-0-22-20 (-30,) energy =    -557.9608224
C           0.9675072    -0.6326918    -0.2070785
H           0.8244817    -0.3971860     0.8620649
H           0.8466127     0.3169918    -0.7470438
N           2.3015244    -1.1379383    -0.4907960
H           2.3962423    -2.1269467    -0.2896209
C           5.8185282     1.0286397     0.3852820
H           6.7307640     1.5781835     0.5978246
C           4.5851781     1.6774222     0.3718248
H           4.5296663     2.7435011     0.5782410
C           3.4054734     0.9793421     0.1061610
H           2.4605881     1.5118961     0.1143662
C           3.4432976    -0.3995724    -0.1667761
C           4.6935845    -1.0499647    -0.1485393
H           4.7387941    -2.1168461    -0.3590161
C           5.8596379    -0.3447545     0.1243617
H           6.8097254    -0.8732465     0.1328984
C          -2.1595465    -3.3357760    -1.4961780
H          -2.9495786    -4.0094038    -1.8171154
C          -0.9392551    -3.3102917    -2.1724022
H          -0.7757527    -3.9631163    -3.0260079
C           0.0768182    -2.4459228    -1.7601758
H           1.0210958    -2.4193964    -2.2959940
C          -0.1126094    -1.5953531    -0.6634807
C          -1.3378476    -1.6352558     0.0142450
H          -1.4928996    -0.9910252     0.8772068
C          -2.3566658    -2.4925694    -0.4007762
H          -3.3007624    -2.5088854     0.1374771
27
382_C13H13N_3-0-22-20 (-15,) energy =    -557.9597389
C           0.9908297    -0.7130693    -0.1115960
H           0.8833048    -0.5977109     0.9816727
H           0.8343158     0.2870829    -0.5379227
N           2.3208418    -1.1528610    -0.4953944
H           2.4595426    -2.1463338    -0.3474848
C           5.8168853     1.0604454     0.3563450
H           6.7234956     1.6221999     0.5608268
C           4.5675095     1.6707859     0.4483078
H           4.4934533     2.7182650     0.7302516
C           3.3949619     0.9564644     0.1938872
H           2.4386291     1.4594645     0.2869914
C           3.4555107    -0.3988954    -0.1749263
C           4.7222811    -1.0102597    -0.2628722
H           4.7853258    -2.0584591    -0.5490893
C           5.8816044    -0.2903886     0.0000991
H           6.8446809    -0.7892586    -0.0748076
C          -2.1858004    -3.2959834    -1.5290495
H          -2.9898858    -3.9397609    -1.8752316
C          -0.9095993    -3.4063611    -2.0789910
H          -0.7139960    -4.1357070    -2.8608668
C           0.1253199    -2.5794916    -1.6335794
H           1.1089257    -2.6548381    -2.0866759
C          -0.1024710    -1.6301121    -0.6314275
C          -1.3871952    -1.5336575    -0.0783846
H          -1.5756355    -0.8114215     0.7136749
C          -2.4220972    -2.3522184    -0.5260501
H          -3.4117266    -2.2597370    -0.0862896
27
382_C13H13N_3-0-22-20 (0,) energy =    -557.9582697
C           1.0308899    -0.5889308    -0.3209375
H           0.9478073    -0.3481511     0.7464005
H           0.8358339     0.3558091    -0.8605446
N           2.3716559    -1.0924514    -0.5574074
H           2.4735270    -1.5124240    -1.4742945
C           5.8554479     1.0290137     0.5464797
H           6.7599287     1.5581574     0.8315102
C           4.6214634     1.3916956     1.0826436
H           4.5572359     2.2139905     1.7910720
C           3.4511404     0.7224595     0.7184918
H           2.5061647     1.0399646     1.1455313
C           3.4994982    -0.3461485    -0.1935648
C           4.7506122    -0.7056339    -0.7337113
H           4.8045944    -1.5328984    -1.4389720
C           5.9071476    -0.0269468    -0.3689929
H           6.8577513    -0.3264451    -0.8033053
C          -2.1667497    -3.3386325    -1.3233005
H          -2.9797022    -4.0129290    -1.5786145
C          -0.8421973    -3.7421664    -1.4779920
H          -0.6156418    -4.7372786    -1.8519291
C           0.2045352    -2.8750403    -1.1499310
H           1.2291649    -3.2204452    -1.2440195
C          -0.0590860    -1.5927351    -0.6592099
C          -1.3963107    -1.1950422    -0.5132493
H          -1.6179420    -0.1952257    -0.1442992
C          -2.4409589    -2.0578375    -0.8355037
H          -3.4696812    -1.7304438    -0.7096073
27
382_C13H13N_3-0-22-20 (15,) energy =    -557.9597391
C           1.0161284    -0.6045286    -0.2147752
H           0.9794531    -0.4782253     0.8757632
H           0.7896701     0.3879895    -0.6434564
N           2.3486353    -1.0677640    -0.5604020
H           2.4005993    -1.4326404    -1.5049854
C           5.8633280     1.0171849     0.5101597
H           6.7759470     1.5375363     0.7852926
C           4.6562098     1.3201185     1.1370850
H           4.6213955     2.0864182     1.9076336
C           3.4756552     0.6618067     0.7866156
H           2.5512740     0.9310521     1.2859226
C           3.4868105    -0.3354399    -0.2043342
C           4.7105251    -0.6344356    -0.8362662
H           4.7353068    -1.4054721    -1.6040618
C           5.8772295     0.0332473    -0.4835764
H           6.8062221    -0.2181267    -0.9893177
C          -2.1427984    -3.3382011    -1.3631200
H          -2.9429367    -4.0145528    -1.6514751
C          -0.8217734    -3.7825962    -1.3367428
H          -0.5864914    -4.8103636    -1.6010980
C           0.2083280    -2.9134719    -0.9670917
H           1.2305657    -3.2762437    -0.9238035
C          -0.0691952    -1.5872309    -0.6183912
C          -1.4000725    -1.1479446    -0.6572893
H          -1.6295008    -0.1144560    -0.4048222
C          -2.4294706    -2.0146678    -1.0186559
H          -3.4549968    -1.6552505    -1.0397784
27
382_C13H13N_3-0-22-20 (30,) energy =    -557.9608224
C           1.0146454    -0.6461222    -0.0960633
H           1.0240581    -0.6396747     1.0030309
H           0.7637977     0.3834475    -0.4059400
N           2.3344850    -1.0562798    -0.5489274
H           2.3361613    -1.3764252    -1.5107319
C           5.8656183     1.0264522     0.4629096
H           6.7823821     1.5477751     0.7219749
C           4.6901292     1.2603798     1.1740767
H           4.6845774     1.9728611     1.9953869
C           3.5043496     0.6004838     0.8453314
H           2.6040321     0.8135243     1.4114882
C           3.4786623    -0.3284415    -0.2100138
C           4.6702509    -0.5579724    -0.9269555
H           4.6660521    -1.2750453    -1.7457153
C           5.8421230     0.1108735    -0.5940455
H           6.7458705    -0.0854124    -1.1656709
C          -2.1192110    -3.3281418    -1.4124039
H          -2.9108911    -3.9969275    -1.7393497
C          -0.8291500    -3.8159481    -1.2006313
H          -0.6122648    -4.8692085    -1.3592476
C           0.1889386    -2.9572460    -0.7816136
H           1.1891264    -3.3421232    -0.6056473
C          -0.0685190    -1.5966890    -0.5701617
C          -1.3646350    -1.1151812    -0.7944881
H          -1.5748702    -0.0576444    -0.6489126
C          -2.3846293    -1.9729399    -1.2057013
H          -3.3841965    -1.5807755    -1.3741460
27
382_C13H13N_3-0-22-20 (45,) energy =    -557.9613379
C           1.0134932    -0.6952868     0.0076931
H           1.0790924    -0.8022836     1.0994453
H           0.7348618     0.3553874    -0.1840186
N           2.3135654    -1.0350595    -0.5544408
H           2.2649393    -1.2931168    -1.5330362
C           5.8591362     1.0358513     0.4253606
H           6.7795860     1.5551135     0.6753483
C           4.7195929     1.1912977     1.2125963
H           4.7460711     1.8398190     2.0849404
C           3.5291688     0.5335221     0.8968476
H           2.6564311     0.6841281     1.5231864
C           3.4627725    -0.3138664    -0.2235926
C           4.6179803    -0.4642877    -1.0173106
H           4.5820318    -1.1176741    -1.8869815
C           5.7944632     0.2018767    -0.6955820
H           6.6696081     0.0679013    -1.3266691
C          -2.1002008    -3.3154586    -1.4615015
H          -2.8842837    -3.9736777    -1.8260997
C          -0.8709179    -3.8430886    -1.0592419
H          -0.6964816    -4.9148638    -1.1079233
C           0.1361797    -2.9993864    -0.5910953
H           1.0923010    -3.4089509    -0.2771663
C          -0.0699367    -1.6142556    -0.5202739
C          -1.3023163    -1.0948706    -0.9324128
H          -1.4716235    -0.0211125    -0.8915880
C          -2.3140043    -1.9383240    -1.3955768
H          -3.2648776    -1.5174460    -1.7117561
27
382_C13H13N_3-0-22-20 (60,) energy =    -557.9613651
C           1.0298724    -0.7665879     0.1110108
H           1.1516218    -0.9806810     1.1813169
H           0.7307553     0.2929009     0.0350555
N           2.3028666    -1.0278375    -0.5512341
H           2.2027812    -1.2270514    -1.5392159
C           5.8485973     1.0660756     0.3733180
H           6.7691545     1.5922120     0.6080909
C           4.7551791     1.1282992     1.2354412
H           4.8182221     1.7099952     2.1519399
C           3.5649791     0.4606736     0.9405550
H           2.7283129     0.5361800     1.6269295
C           3.4520837    -0.3018142    -0.2360202
C           4.5607002    -0.3582873    -1.1051029
H           4.4886128    -0.9453318    -2.0187215
C           5.7373194     0.3164527    -0.8022594
H           6.5759166     0.2560575    -1.4916513
C          -2.0790724    -3.2962843    -1.5109013
H          -2.8601392    -3.9341959    -1.9159103
C          -0.9490073    -3.8627779    -0.9145012
H          -0.8500459    -4.9434390    -0.8534397
C           0.0518398    -3.0447365    -0.3927683
H           0.9328461    -3.4840463     0.0679745
C          -0.0603312    -1.6483998    -0.4603695
C          -1.1928118    -1.0913715    -1.0633735
H          -1.2890186    -0.0096220    -1.1243337
C          -2.1992302    -1.9087178    -1.5838809
H          -3.0734439    -1.4598056    -2.0479906
27
382_C13H13N_3-0-22-20 (75,) energy =    -557.9610968
C           1.0669747    -0.8711340     0.2158832
H           1.2368349    -1.1903995     1.2522871
H           0.7609512     0.1882615     0.2567284
N           2.3084213    -1.0475414    -0.5320054
H           2.1603683    -1.2059583    -1.5210165
C           5.8237798     1.1266423     0.3155903
H           6.7366337     1.6746811     0.5294318
C           4.7836950     1.0891250     1.2427651
H           4.8812636     1.6137976     2.1901601
C           3.6040861     0.3918002     0.9757233
H           2.8099163     0.3858386     1.7148088
C           3.4475168    -0.2986781    -0.2399616
C           4.5024997    -0.2550643    -1.1742667
H           4.3964720    -0.7857935    -2.1185198
C           5.6692370     0.4474261    -0.8973330
H           6.4659530     0.4649505    -1.6370175
C          -2.0679993    -3.2551642    -1.5635321
H          -2.8542862    -3.8568447    -2.0115627
C          -1.0758505    -3.8626870    -0.7893807
H          -1.0886253    -4.9382161    -0.6335561
C          -0.0696956    -3.0899835    -0.2110635
H           0.7040630    -3.5626050     0.3889908
C          -0.0397201    -1.7010939    -0.3972631
C          -1.0369570    -1.1028682    -1.1756384
H          -1.0257771    -0.0251654    -1.3234474
C          -2.0470888    -1.8735553    -1.7558800
H          -2.8167460    -1.3939043    -2.3547932
27
382_C13H13N_3-0-22-20 (90,) energy =    -557.9607683
C           1.0508227    -0.9064696     0.2384189
H           1.4128747    -1.3992353     1.1571463
H           0.6594105     0.0738472     0.5388085
N           2.1334064    -0.7078673    -0.7212890
H           2.2182023    -1.4573131    -1.3962656
C           5.8122630     1.0782391     0.3120620
H           6.7603628     1.5432143     0.5655576
C           4.7086460     1.2104579     1.1532378
H           4.7928964     1.7825128     2.0741315
C           3.4865139     0.6134641     0.8390519
H           2.6456469     0.7321609     1.5143189
C           3.3445524    -0.1319006    -0.3459130
C           4.4649909    -0.2626831    -1.1918818
H           4.3698125    -0.8345803    -2.1129975
C           5.6767529     0.3338260    -0.8643722
H           6.5245300     0.2150535    -1.5347507
C          -2.0574862    -3.2717826    -1.6107675
H          -2.8346086    -3.8675778    -2.0820188
C          -1.0374858    -3.8947645    -0.8898960
H          -1.0173532    -4.9773875    -0.7969326
C          -0.0433867    -3.1263923    -0.2813723
H           0.7460048    -3.6141130     0.2868848
C          -0.0567059    -1.7294891    -0.3819014
C          -1.0812200    -1.1155217    -1.1132249
H          -1.0952556    -0.0321023    -1.2047405
C          -2.0774174    -1.8796437    -1.7213577
H          -2.8695408    -1.3888804    -2.2806374
27
382_C13H13N_3-0-22-20 (105,) energy =    -557.9611355
C           1.1062224    -1.0280965     0.2770040
H           1.5093824    -1.5990771     1.1308558
H           0.7263428    -0.0812898     0.6824463
N           2.1384573    -0.7262878    -0.7100710
H           2.2351225    -1.4426183    -1.4190882
C           5.7799723     1.1606621     0.2810213
H           6.7173147     1.6528913     0.5228185
C           4.7116109     1.1882020     1.1758262
H           4.8131638     1.7043332     2.1274856
C           3.5040027     0.5544915     0.8772913
H           2.6925996     0.5882819     1.5966346
C           3.3401087    -0.1200548    -0.3463345
C           4.4254143    -0.1460711    -1.2458902
H           4.3128038    -0.6629609    -2.1970294
C           5.6237748     0.4846367    -0.9334688
H           6.4443348     0.4471894    -1.6458490
C          -2.0927960    -3.2314375    -1.6184946
H          -2.8949929    -3.7840882    -2.1002554
C          -1.2061337    -3.8853850    -0.7628356
H          -1.3136501    -4.9505568    -0.5758689
C          -0.1776790    -3.1712115    -0.1434846
H           0.5111878    -3.6835205     0.5246490
C          -0.0268795    -1.7979897    -0.3657015
C          -0.9195122    -1.1517192    -1.2320529
H          -0.8022594    -0.0870198    -1.4185162
C          -1.9463166    -1.8615449    -1.8529334
H          -2.6343573    -1.3464602    -2.5181284
27
382_C13H13N_3-0-22-20 (120,) energy =    -557.9613673
C           1.1764512    -1.1467118     0.2842355
H           1.6175743    -1.7866680     1.0675134
H           0.8100184    -0.2428130     0.7892163
N           2.1601264    -0.7416913    -0.7136613
H           2.2682257    -1.4168026    -1.4609289
C           5.7545596     1.2380335     0.2724408
H           6.6788428     1.7550542     0.5127610
C           4.7218282     1.1587802     1.2051063
H           4.8383268     1.6149188     2.1852507
C           3.5318345     0.4915161     0.9086733
H           2.7503522     0.4390437     1.6592391
C           3.3489472    -0.1073986    -0.3508407
C           4.3984789    -0.0260943    -1.2885996
H           4.2714343    -0.4835843    -2.2679353
C           5.5802761     0.6358949    -0.9778995
H           6.3733637     0.6818346    -1.7202232
C          -2.1393760    -3.1878331    -1.5964376
H          -2.9741693    -3.6979338    -2.0696724
C          -1.3736678    -3.8420941    -0.6317186
H          -1.6071487    -4.8657278    -0.3509405
C          -0.3003731    -3.1837342    -0.0263219
H           0.2963751    -3.6987878     0.7231769
C           0.0158675    -1.8654790    -0.3707730
C          -0.7581872    -1.2172915    -1.3442374
H          -0.5117827    -0.1962361    -1.6238011
C          -1.8273658    -1.8727913    -1.9527200
H          -2.4204149    -1.3572099    -2.7035995
27
382_C13H13N_3-0-22-20 (135,) energy =    -557.9613567
C           1.2370005    -1.2524756     0.2668715
H           1.7181755    -1.9512481     0.9728250
H           0.8815107    -0.4033780     0.8670017
N           2.1703560    -0.7396686    -0.7272249
H           2.2826255    -1.3604502    -1.5200755
C           5.7291921     1.2941795     0.2833876
H           6.6435927     1.8258809     0.5294035
C           4.7358948     1.1070845     1.2429495
H           4.8738090     1.4926451     2.2502227
C           3.5593787     0.4195058     0.9388625
H           2.8106961     0.2812956     1.7115101
C           3.3491401    -0.0899029    -0.3551328
C           4.3591737     0.1002629    -1.3198900
H           4.2103682    -0.2872953    -2.3259620
C           5.5285995     0.7805666    -1.0019512
H           6.2908470     0.9110631    -1.7661796
C          -2.1870186    -3.1557120    -1.5698383
H          -3.0515403    -3.6300466    -2.0265977
C          -1.5279153    -3.7722900    -0.5060134
H          -1.8750562    -4.7315532    -0.1311221
C          -0.4143639    -3.1622551     0.0751536
H           0.1002867    -3.6514045     0.8992370
C           0.0513684    -1.9282666    -0.3920550
C          -0.6188290    -1.3151604    -1.4603025
H          -0.2610651    -0.3579020    -1.8293550
C          -1.7275544    -1.9254265    -2.0462205
H          -2.2363183    -1.4381612    -2.8739940
27
382_C13H13N_3-0-22-20 (150,) energy =    -557.9609159
C           1.3022853    -1.3585410     0.2326134
H           1.8256142    -2.1099160     0.8496109
H           0.9642583    -0.5757549     0.9260213
N           2.1792194    -0.7367386    -0.7473026
H           2.2930643    -1.2976981    -1.5838262
C           5.7045371     1.3367490     0.3020935
H           6.6093734     1.8797157     0.5586123
C           4.7528092     1.0419642     1.2765321
H           4.9140222     1.3535587     2.3056806
C           3.5890432     0.3387512     0.9590866
H           2.8739317     0.1148830     1.7433042
C           3.3494915    -0.0765585    -0.3628538
C           4.3175132     0.2223565    -1.3427809
H           4.1454232    -0.0915459    -2.3706031
C           5.4751495     0.9165213    -1.0120107
H           6.2049543     1.1317994    -1.7885987
C          -2.2311318    -3.1309031    -1.5313473
H          -3.1244862    -3.5730729    -1.9641767
C          -1.6627234    -3.6788252    -0.3799463
H          -2.1110719    -4.5514656     0.0877922
C          -0.5118674    -3.1132048     0.1693482
H          -0.0681159    -3.5512245     1.0609605
C           0.0869664    -1.9916124    -0.4177455
C          -0.4960155    -1.4426775    -1.5674325
H          -0.0476437    -0.5634667    -2.0208303
C          -1.6431791    -2.0118239    -2.1229207
H          -2.0807245    -1.5756380    -3.0172652
27
382_C13H13N_3-0-22-20 (165,) energy =    -557.9598738
C           1.3714334    -1.4551929     0.1797213
H           1.9344033    -2.2569407     0.6903435
H           1.0641204    -0.7528679     0.9663580
N           2.1886069    -0.7227533    -0.7721791
H           2.3051161    -1.2189123    -1.6486786
C           5.6861017     1.3738542     0.3294756
H           6.5826653     1.9240653     0.5992402
C           4.7774291     0.9734003     1.3071883
H           4.9644116     1.2085589     2.3521418
C           3.6247457     0.2599933     0.9722261
H           2.9447684    -0.0470015     1.7594452
C           3.3523573    -0.0584245    -0.3698465
C           4.2771448     0.3470545    -1.3529893
H           4.0791411     0.1094116    -2.3965147
C           5.4244650     1.0502163    -1.0057102
H           6.1204041     1.3488682    -1.7857554
C          -2.2710521    -3.0905714    -1.4988208
H          -3.1913158    -3.5004519    -1.9062181
C          -1.7799931    -3.5453477    -0.2723399
H          -2.3177338    -4.3113039     0.2803467
C          -0.5962389    -3.0218992     0.2440046
H          -0.2157152    -3.3870278     1.1960283
C           0.1194724    -2.0374989    -0.4517228
C          -0.3895731    -1.5749677    -1.6703523
H           0.1306543    -0.7844195    -2.2022996
C          -1.5723658    -2.1041186    -2.1934616
H          -1.9498698    -1.7359683    -3.1439693
27
382_C13H13N_3-0-22-20 (180,) energy =    -557.9582950
C           1.1918630    -1.2130733     0.1639638
H           1.7576568    -1.9610766     0.7331911
H           0.8249234    -0.4809672     0.9066031
N           2.0972067    -0.6146365    -0.8003133
H           1.6132478    -0.0535744    -1.4921420
C           5.7830012     1.1445921     0.2852815
H           6.7367881     1.5930473     0.5470133
C           5.1220644     0.3066404     1.1812303
H           5.5594548     0.0991351     2.1547749
C           3.8922067    -0.2702670     0.8575630
H           3.3997714    -0.9068764     1.5844465
C           3.3001363    -0.0238552    -0.3933920
C           3.9730615     0.8268323    -1.2932203
H           3.5283866     1.0249287    -2.2667123
C           5.1930250     1.4009199    -0.9564865
H           5.6877873     2.0538789    -1.6712083
C          -2.1886071    -3.3134782    -1.5520558
H          -3.0388279    -3.8480352    -1.9669094
C          -2.0224979    -3.2216933    -0.1673380
H          -2.7414103    -3.6879490     0.5013227
C          -0.9324404    -2.5341557     0.3605222
H          -0.8118085    -2.4651189     1.4401515
C           0.0086836    -1.9186615    -0.4779217
C          -0.1539868    -2.0360198    -1.8616046
H           0.5894713    -1.6187722    -2.5331680
C          -1.2497742    -2.7216688    -2.3945606
H          -1.3600337    -2.7983695    -3.4731676
