26
109_C9H13N3O_20-0-9-11 (-165,) energy =    -590.2845982
C           3.0728426    -1.6439760    -1.4996500
H           3.6105792    -1.4862622    -2.4457194
H           3.0205775    -2.7323215    -1.3510742
C           6.1561546     0.8215799     0.2778974
H           6.6829969     1.1166030    -0.6406879
H           6.6126473     1.3905120     1.0929256
C           4.7168805     1.3144283     0.1427395
N           3.7859558     0.4051971    -0.2924065
H           2.8255498     0.7400429    -0.2568673
C           3.9211814    -1.0509590    -0.3500267
H           3.5584785    -1.4867128     0.5944682
C           5.3976877    -1.4214635    -0.5343652
H           5.7129112    -1.1457838    -1.5505198
H           5.5088664    -2.5094041    -0.4450148
C           6.2746270    -0.6919145     0.4858092
H           5.9522384    -0.9577498     1.5020292
H           7.3196041    -1.0109727     0.3944724
C          -0.1986853    -0.0806244    -1.3293910
H          -0.9302687     0.5297985    -0.8185868
N           1.0409113    -0.3242316    -0.7766415
C           1.6874387    -1.0799322    -1.6451010
N           0.9025150    -1.3340653    -2.7384119
H           1.1619735    -1.8854187    -3.5437959
C          -0.3104653    -0.6992927    -2.5456923
H          -1.1042785    -0.7436638    -3.2757131
O           4.4176961     2.4825896     0.3591704
26
109_C9H13N3O_20-0-9-11 (-150,) energy =    -590.2818736
C           2.9103438    -1.5949623    -1.2448603
H           3.4624047    -1.6590383    -2.1926166
H           2.7116705    -2.6304628    -0.9361637
C           6.0285137     1.0156934     0.3083687
H           6.4765203     1.3525546    -0.6372895
H           6.5145056     1.5904667     1.1019813
C           4.5634274     1.4466366     0.2790424
N           3.6438404     0.5011514    -0.0997829
H           2.6764917     0.8040624    -0.0134190
C           3.8364778    -0.9471508    -0.1734720
H           3.5835932    -1.3940996     0.8005946
C           5.3074678    -1.2471533    -0.4850464
H           5.5230856    -0.9411397    -1.5183643
H           5.4727226    -2.3304007    -0.4263795
C           6.2319464    -0.4942800     0.4742873
H           6.0084032    -0.7932091     1.5076813
H           7.2793378    -0.7612044     0.2902136
C          -0.2357687     0.2028579    -1.3366024
H          -1.0129711     0.7751855    -0.8493333
N           0.8662934    -0.2447835    -0.6400549
C           1.6169631    -0.8849260    -1.5188254
N           1.0323815    -0.8661404    -2.7564151
H           1.4058378    -1.2815619    -3.5977256
C          -0.1586854    -0.1732260    -2.6516944
H          -0.8079089    -0.0152885    -3.4993394
O           4.2311387     2.5999337     0.5240886
26
109_C9H13N3O_20-0-9-11 (-135,) energy =    -590.2794952
C           2.8372521    -1.7435212    -1.0090689
H           3.3605408    -2.0216904    -1.9331049
H           2.5270438    -2.6854343    -0.5403496
C           5.9577091     1.0538095     0.2482333
H           6.2850382     1.4502789    -0.7234332
H           6.4859594     1.6343899     1.0101078
C           4.4734632     1.3926370     0.3761032
N           3.5800934     0.3945270     0.0817434
H           2.6051803     0.6464068     0.2273729
C           3.8554064    -1.0344918    -0.0498663
H           3.7596491    -1.5101247     0.9385766
C           5.2954248    -1.2329403    -0.5366700
H           5.3702230    -0.8926388    -1.5793236
H           5.5309614    -2.3045682    -0.5260976
C           6.2741947    -0.4435086     0.3355106
H           6.1904758    -0.7860513     1.3762141
H           7.3087722    -0.6330707     0.0258017
C          -0.1846210     0.2223969    -1.3473728
H          -0.9886290     0.8017757    -0.9149005
N           0.7995436    -0.3347618    -0.5604671
C           1.6192994    -0.9567966    -1.3899918
N           1.1926928    -0.8191979    -2.6828931
H           1.6456630    -1.1974308    -3.5023450
C           0.0345222    -0.0664360    -2.6690881
H          -0.4991641     0.1838371    -3.5732130
O           4.0991044     2.5223202     0.6660960
26
109_C9H13N3O_20-0-9-11 (-120,) energy =    -590.2785547
C           2.7658618    -1.8558061    -0.8340726
H           3.2514265    -2.3437999    -1.6879044
H           2.3423017    -2.6593402    -0.2220969
C           5.8672645     1.0806056     0.1641551
H           6.0789665     1.5346172    -0.8141269
H           6.4356205     1.6592289     0.8984241
C           4.3864418     1.3365681     0.4432004
N           3.5258860     0.2895702     0.2405596
H           2.5492135     0.4994845     0.4321124
C           3.8627996    -1.1124015     0.0148433
H           3.9147187    -1.6285335     0.9864268
C           5.2471637    -1.2175954    -0.6330361
H           5.1907173    -0.8476225    -1.6673477
H           5.5373567    -2.2744857    -0.6802194
C           6.2713314    -0.3984029     0.1558664
H           6.3218035    -0.7795122     1.1853284
H           7.2744395    -0.5167987    -0.2707240
C          -0.0993246     0.2620399    -1.4495226
H          -0.9255237     0.8588936    -1.0884440
N           0.7460737    -0.3903434    -0.5795984
C           1.6339586    -1.0128200    -1.3354627
N           1.3855870    -0.7828702    -2.6613480
H           1.9210647    -1.1426570    -3.4381740
C           0.2733891     0.0316160    -2.7485201
H          -0.1317468     0.3524200    -3.6960878
O           3.9828452     2.4446373     0.7743403
26
109_C9H13N3O_20-0-9-11 (-105,) energy =    -590.2792967
C           2.6742824    -1.9182065    -0.6621207
H           3.1095939    -2.5893213    -1.4119067
H           2.1561701    -2.5544331     0.0623601
C           5.7505350     1.1010680     0.1434758
H           5.8524495     1.6197183    -0.8200307
H           6.3631238     1.6615678     0.8561170
C           4.2923401     1.2818551     0.5658391
N           3.4656208     0.1990648     0.4216063
H           2.4907302     0.3752661     0.6501983
C           3.8371021    -1.1687301     0.0785626
H           4.0236066    -1.7348523     1.0057848
C           5.1462872    -1.1825393    -0.7160616
H           4.9699366    -0.7678491    -1.7199810
H           5.4722984    -2.2220134    -0.8432686
C           6.2115762    -0.3552978     0.0083892
H           6.3845062    -0.7878720     1.0036923
H           7.1692974    -0.4029046    -0.5233357
C          -0.0152961     0.3123064    -1.5738773
H          -0.8533450     0.9375504    -1.2982466
N           0.6934338    -0.3929748    -0.6267779
C           1.6347213    -1.0426147    -1.2888571
N           1.5539652    -0.7785518    -2.6296906
H           2.1555248    -1.1542461    -3.3484287
C           0.4963994     0.0881300    -2.8259603
H           0.2159375     0.4404227    -3.8069247
O           3.8732813     2.3632813     0.9592196
26
109_C9H13N3O_20-0-9-11 (-90,) energy =    -590.2809503
C           2.6066932    -1.9304294    -0.4999502
H           2.9710354    -2.7413299    -1.1421470
H           2.0358736    -2.3994018     0.3080273
C           5.6880411     1.1152315     0.1337999
H           5.6832606     1.7089963    -0.7907511
H           6.3591728     1.6358490     0.8238245
C           4.2744093     1.2308921     0.7050241
N           3.4705047     0.1262909     0.6013519
H           2.5063566     0.2796451     0.8829339
C           3.8364015    -1.2028300     0.1244743
H           4.1487723    -1.8243467     0.9805937
C           5.0393976    -1.1214476    -0.8190274
H           4.7372559    -0.6416352    -1.7619483
H           5.3742748    -2.1384524    -1.0572418
C           6.1619750    -0.3135193    -0.1606872
H           6.4575041    -0.8112682     0.7733825
H           7.0533711    -0.2931275    -0.7987641
C           0.0883230     0.3715036    -1.6737509
H          -0.7374838     1.0411343    -1.4764236
N           0.6976093    -0.3321748    -0.6588605
C           1.6494480    -1.0450598    -1.2338891
N           1.6740246    -0.8219183    -2.5852984
H           2.2999244    -1.2528612    -3.2501843
C           0.6728359     0.0834105    -2.8801066
H           0.4751855     0.4136714    -3.8886011
O           3.8656134     2.2822054     1.1812149
26
109_C9H13N3O_20-0-9-11 (-75,) energy =    -590.2826399
C           2.4539422    -1.8005262    -0.2088383
H           2.6449121    -2.8146412    -0.5709704
H           1.8284008    -1.9155334     0.6910313
C           5.8067697     0.9466912    -0.3483332
H           5.5611707     1.3363873    -1.3466329
H           6.6402849     1.5458769     0.0277035
C           4.6147362     1.2320524     0.5552280
N           3.6323188     0.2550571     0.6028926
H           2.9668230     0.4383282     1.3497362
C           3.7909205    -1.1602467     0.2267615
H           4.1074598    -1.7123825     1.1271073
C           4.9013973    -1.3480337    -0.8134382
H           4.5381541    -1.0315114    -1.8009566
H           5.1229675    -2.4184840    -0.8826479
C           6.1512192    -0.5454113    -0.4432697
H           6.5455893    -0.8962421     0.5206147
H           6.9440065    -0.7030358    -1.1831170
C           0.3199428    -0.7287663    -2.9162860
H          -0.3243004    -0.9656580    -3.7523676
N           0.9588679    -1.7183016    -2.2032963
C           1.6505391    -1.0938604    -1.2655948
N           1.4753451     0.2620234    -1.3501547
H           1.9691936     0.9403998    -0.7867264
C           0.6292223     0.5087079    -2.4116415
H           0.3451323     1.5106510    -2.6964592
O           4.4805795     2.2816695     1.1664173
26
109_C9H13N3O_20-0-9-11 (-60,) energy =    -590.2851589
C           2.3856320    -1.7584750    -0.0935823
H           2.4865448    -2.8184738    -0.3450328
H           1.7656112    -1.7161156     0.8159104
C           5.7695299     0.9464244    -0.3443849
H           5.4737797     1.4313920    -1.2857448
H           6.6416028     1.4912458     0.0274097
C           4.6414238     1.1822571     0.6517973
N           3.6600723     0.2071604     0.7104836
H           3.0306222     0.3607527     1.4940500
C           3.7783901    -1.1878787     0.2467843
H           4.1729128    -1.7968632     1.0765501
C           4.7714805    -1.2877195    -0.9151788
H           4.3171031    -0.8737787    -1.8244545
H           4.9664858    -2.3481862    -1.1102722
C           6.0673814    -0.5374165    -0.5948114
H           6.5391543    -0.9765836     0.2952548
H           6.7865919    -0.6435327    -1.4147823
C           0.5153424    -0.7839639    -3.0259463
H          -0.0326964    -1.0418383    -3.9221482
N           1.0874474    -1.7547777    -2.2334226
C           1.6657572    -1.1070727    -1.2377338
N           1.4821896     0.2454613    -1.3604804
H           1.8950422     0.9402799    -0.7534024
C           0.7509519     0.4650393    -2.5097334
H           0.4813163     1.4579847    -2.8369554
O           4.5538056     2.1997967     1.3234456
26
109_C9H13N3O_20-0-9-11 (-45,) energy =    -590.2844584
C           2.3030717    -1.6963522    -0.0298895
H           2.3083731    -2.7816910    -0.1720086
H           1.7104558    -1.5050574     0.8770576
C           5.7911031     0.8980277    -0.3036201
H           5.4851391     1.5047116    -1.1679603
H           6.7100168     1.3484427     0.0819529
C           4.7210521     1.0850805     0.7653203
N           3.7124719     0.1398958     0.7984258
H           3.1136064     0.2623168     1.6104261
C           3.7522835    -1.2190438     0.2211088
H           4.1994865    -1.9058793     0.9572185
C           4.6325095    -1.2095358    -1.0320383
H           4.1257565    -0.6604237    -1.8340913
H           4.7562356    -2.2411736    -1.3810278
C           5.9879185    -0.5608590    -0.7346559
H           6.4983279    -1.1191661     0.0623537
H           6.6380574    -0.6079655    -1.6155564
C           0.6187741    -0.8840675    -3.1200752
H           0.1438621    -1.1852792    -4.0440002
N           1.1440243    -1.8152131    -2.2501312
C           1.6334672    -1.1211179    -1.2396786
N           1.4388465     0.2233083    -1.4266912
H           1.7784004     0.9506768    -0.8123755
C           0.7924382     0.3874274    -2.6351411
H           0.5271270     1.3615806    -3.0176982
O           4.7020194     2.0505518     1.5155155
26
109_C9H13N3O_20-0-9-11 (-30,) energy =    -590.2814143
C           2.2227721    -1.5639037     0.1062258
H           2.1488016    -2.6559317     0.1015572
H           1.6618773    -1.2173340     0.9848766
C           5.8336456     0.8901574    -0.1714585
H           5.5378731     1.6072325    -0.9504883
H           6.7965056     1.2360270     0.2155364
C           4.8208868     1.0337712     0.9588791
N           3.7834047     0.1249435     0.9770871
H           3.2156111     0.2189794     1.8139419
C           3.7177800    -1.1740002     0.2791145
H           4.1898046    -1.9447180     0.9081596
C           4.5018234    -1.0581898    -1.0313958
H           3.9744158    -0.3852300    -1.7167458
H           4.5342601    -2.0416155    -1.5139197
C           5.9117392    -0.5223191    -0.7639001
H           6.4358379    -1.1919135    -0.0679359
H           6.4999472    -0.5099412    -1.6885053
C           0.6765910    -1.0568353    -3.1174747
H           0.2936157    -1.4428161    -4.0524602
N           1.2148734    -1.8955565    -2.1654086
C           1.5707636    -1.1144012    -1.1632926
N           1.2777056     0.1979213    -1.4352454
H           1.4897756     0.9845400    -0.8374016
C           0.7062644     0.2466845    -2.6912804
H           0.3809482     1.1733494    -3.1396943
O           4.8751714     1.9441932     1.7746101
26
109_C9H13N3O_20-0-9-11 (-15,) energy =    -590.2781281
C           2.2083184    -1.3926681     0.0934351
H           2.0429257    -2.4620019     0.2541700
H           1.6845802    -0.8690946     0.9030591
C           5.9816188     0.8412321    -0.1183937
H           5.7081708     1.6690035    -0.7880494
H           6.9863467     1.0644513     0.2521833
C           5.0383125     0.9201907     1.0772888
N           3.9413295     0.0875483     1.0535667
H           3.4176630     0.1283991     1.9223971
C           3.7423212    -1.1077713     0.2148047
H           4.1973995    -1.9752569     0.7169110
C           4.4614102    -0.8909125    -1.1192800
H           3.9505932    -0.1028284    -1.6855546
H           4.3894286    -1.8069351    -1.7152200
C           5.9195022    -0.4896689    -0.8780838
H           6.4267810    -1.2746747    -0.3001264
H           6.4570753    -0.4058153    -1.8294863
C           0.7866584    -1.2210821    -3.2223810
H           0.4976365    -1.6947592    -4.1508074
N           1.3560922    -1.9460916    -2.1984796
C           1.5735543    -1.0810241    -1.2257252
N           1.1618818     0.1763431    -1.5889849
H           1.2309504     1.0096925    -1.0221034
C           0.6557514     0.0983864    -2.8713859
H           0.2555838     0.9591293    -3.3857440
O           5.2009040     1.7249398     1.9852688
26
109_C9H13N3O_20-0-9-11 (0,) energy =    -590.2765502
C           2.1746210    -1.2145164     0.0798891
H           1.9062282    -2.2148082     0.4314413
H           1.7207517    -0.5002396     0.7774205
C           6.0953387     0.7548364    -0.0682727
H           5.8423329     1.6684795    -0.6248466
H           7.1299184     0.8742609     0.2663319
C           5.2210693     0.7499689     1.1814038
N           4.0694776    -0.0019654     1.1236550
H           3.5861886    -0.0276847     2.0158697
C           3.7357694    -1.0551244     0.1534232
H           4.1411029    -2.0121203     0.5161845
C           4.4167777    -0.7471120    -1.1825666
H           3.9446970     0.1308259    -1.6428160
H           4.2538993    -1.5890856    -1.8622078
C           5.9078688    -0.4744453    -0.9659262
H           6.3771850    -1.3520691    -0.4998289
H           6.4147908    -0.3221130    -1.9256875
C           0.8153062    -1.3874244    -3.2647057
H           0.5828616    -1.9444449    -4.1622886
N           1.4170745    -1.9925959    -2.1834248
C           1.5485538    -1.0481814    -1.2704777
N           1.0503666     0.1449585    -1.7288515
H           1.0311517     1.0169125    -1.2193132
C           0.5755712    -0.0614268    -3.0090503
H           0.1186033     0.7274095    -3.5872752
O           5.4863750     1.4259994     2.1669009
26
109_C9H13N3O_20-0-9-11 (15,) energy =    -590.2772647
C           2.1606772    -1.0309168     0.0976315
H           1.8252258    -1.9256904     0.6309134
H           1.7804242    -0.1654596     0.6548384
C           6.1616054     0.7403937     0.0329453
H           5.9293740     1.7194981    -0.4097275
H           7.2109347     0.7815693     0.3392117
C           5.3309192     0.6295747     1.3074313
N           4.1474072    -0.0652425     1.2098514
H           3.6858932    -0.1689901     2.1077762
C           3.7264963    -0.9682799     0.1323697
H           4.0825288    -1.9849952     0.3609955
C           4.3866911    -0.5585793    -1.1864236
H           3.9455443     0.3807895    -1.5483829
H           4.1701083    -1.3253376    -1.9354688
C           5.8936128    -0.3732991    -0.9868472
H           6.3335238    -1.3162146    -0.6331954
H           6.3822586    -0.1388760    -1.9395638
C           0.8229077    -1.5964399    -3.2135091
H           0.6232046    -2.2468177    -4.0544250
N           1.4528425    -2.0641870    -2.0814574
C           1.5320870    -1.0319779    -1.2619851
N           0.9742819     0.0846338    -1.8303573
H           0.9011089     0.9969936    -1.4033227
C           0.5134102    -0.2665219    -3.0836923
H           0.0182382     0.4396167    -3.7329277
O           5.6594762     1.1779550     2.3513643
26
109_C9H13N3O_20-0-9-11 (30,) energy =    -590.2795858
C           2.1372883    -0.8592227     0.0789949
H           1.7491027    -1.6397881     0.7424615
H           1.8405570     0.1052810     0.5116855
C           6.2094628     0.6747818     0.1281610
H           6.0074526     1.7098553    -0.1824180
H           7.2671738     0.6365007     0.4043514
C           5.4080307     0.4368577     1.4039828
N           4.1946864    -0.1928550     1.2555524
H           3.7423393    -0.3816937     2.1441036
C           3.6949393    -0.9131584     0.0811117
H           3.9773362    -1.9747650     0.1629300
C           4.3514316    -0.3845164    -1.1965265
H           3.9495603     0.6099276    -1.4404847
H           4.0883961    -1.0525486    -2.0212382
C           5.8691242    -0.2911754    -1.0132227
H           6.2707359    -1.2891875    -0.7893364
H           6.3491961     0.0373739    -1.9422461
C           0.7870170    -1.7460121    -3.1550823
H           0.5919512    -2.4733910    -3.9315670
N           1.4267467    -2.0999503    -1.9877462
C           1.4978963    -0.9949708    -1.2684175
N           0.9264554     0.0580728    -1.9350493
H           0.8415198     1.0043790    -1.5926319
C           0.4632472    -0.4130857    -3.1475184
H          -0.0411575     0.2248626    -3.8573709
O           5.7879467     0.8329646     2.4981995
26
109_C9H13N3O_20-0-9-11 (45,) energy =    -590.2821538
C           2.1244616    -0.6658350     0.0213990
H           1.6963029    -1.3225719     0.7891129
H           1.9039486     0.3658398     0.3260171
C           6.2620217     0.5961982     0.2114018
H           6.1130061     1.6681634     0.0186119
H           7.3170197     0.4734083     0.4731003
C           5.4532607     0.2579940     1.4598431
N           4.2121683    -0.2957049     1.2535285
H           3.7523982    -0.5573397     2.1194542
C           3.6639393    -0.8419382     0.0100284
H           3.8613847    -1.9246067    -0.0331235
C           4.3483250    -0.2116783    -1.2054725
H           4.0000460     0.8244654    -1.3326353
H           4.0503146    -0.7691584    -2.0979259
C           5.8693518    -0.2198941    -1.0258527
H           6.2166443    -1.2563296    -0.9145091
H           6.3646998     0.1816694    -1.9174389
C           0.7706958    -1.8869765    -3.0996652
H           0.6039837    -2.6857933    -3.8097041
N           1.4503525    -2.1070975    -1.9219564
C           1.4718093    -0.9439353    -1.2977373
N           0.8313637     0.0174428    -2.0353841
H           0.7037055     0.9839152    -1.7717328
C           0.3731107    -0.5776127    -3.1942882
H          -0.1769824    -0.0288226    -3.9435767
O           5.8559654     0.5114128     2.5877634
26
109_C9H13N3O_20-0-9-11 (60,) energy =    -590.2836141
C           2.1473890    -0.3987872    -0.0926729
H           1.6916721    -0.9097099     0.7677269
H           2.0075460     0.6775745     0.0712191
C           6.3586038     0.5050571     0.2428588
H           6.3020607     1.5992673     0.1540798
H           7.3959957     0.2696767     0.4980412
C           5.5072869     0.1192664     1.4486044
N           4.2328773    -0.3201762     1.1840459
H           3.7422487    -0.6198568     2.0201492
C           3.6586537    -0.7093309    -0.1079762
H           3.7634861    -1.7952640    -0.2493312
C           4.4031529    -0.0124034    -1.2494853
H           4.1329167     1.0540350    -1.2675136
H           4.0753199    -0.4511173    -2.1967938
C           5.9175904    -0.1529526    -1.0697187
H           6.1853599    -1.2184400    -1.0621834
H           6.4491009     0.2969324    -1.9163392
C           0.7401572    -1.9526792    -3.0386366
H           0.6348415    -2.8023940    -3.6995713
N           1.5485061    -2.0092388    -1.9243461
C           1.4524312    -0.8241182    -1.3513016
N           0.6111353    -0.0065680    -2.0590165
H           0.3722776     0.9469381    -1.8272802
C           0.1450057    -0.7218384    -3.1450066
H          -0.5413628    -0.2966755    -3.8614606
O           5.9114167     0.2420976     2.5979519
26
109_C9H13N3O_20-0-9-11 (75,) energy =    -590.2833710
C           2.1653439    -0.1896257    -0.2351489
H           1.6763809    -0.5358242     0.6885825
H           2.0744232     0.9042608    -0.2383474
C           6.3978973     0.4181500     0.4105769
H           6.4158182     1.5173729     0.4099391
H           7.4016645     0.0934588     0.6996693
C           5.4535964    -0.0014929     1.5329341
N           4.1678917    -0.3193945     1.1669856
H           3.6147220    -0.6525968     1.9497034
C           3.6527629    -0.5900871    -0.1811395
H           3.7089165    -1.6663022    -0.3947863
C           4.5017441     0.1559414    -1.2145893
H           4.2974056     1.2342417    -1.1443825
H           4.2006011    -0.1730036    -2.2147298
C           5.9921930    -0.0999804    -0.9742375
H           6.1918790    -1.1779000    -1.0447963
H           6.5972416     0.3822793    -1.7508259
C           0.7765981    -2.1109141    -2.9699550
H           0.7514149    -3.0031710    -3.5806872
N           1.6866934    -1.9716428    -1.9442522
C           1.4532028    -0.7858544    -1.4146438
N           0.4250564    -0.1559294    -2.0653476
H           0.0560278     0.7595351    -1.8514521
C          -0.0201475    -0.9996783    -3.0649789
H          -0.8294372    -0.7302471    -3.7265789
O           5.7983790    -0.0022676     2.7080522
26
109_C9H13N3O_20-0-9-11 (90,) energy =    -590.2815979
C           2.1915843    -0.0600004    -0.3672904
H           1.7151101    -0.2737971     0.6011356
H           2.1247286     1.0270057    -0.5020683
C           6.4208046     0.3448854     0.5064521
H           6.4789246     1.4344049     0.6403568
H           7.4001016    -0.0529916     0.7879944
C           5.4200184    -0.1687705     1.5375392
N           4.1405549    -0.3993221     1.0933559
H           3.5525056    -0.8114224     1.8103826
C           3.6708236    -0.5040008    -0.2957283
H           3.7142998    -1.5508586    -0.6234804
C           4.5772468     0.3424634    -1.1946515
H           4.3984424     1.4075528    -0.9888055
H           4.3034618     0.1603231    -2.2404565
C           6.0510984     0.0129531    -0.9440190
H           6.2242441    -1.0537921    -1.1409079
H           6.6949984     0.5683477    -1.6359102
C           0.6511585    -2.2714235    -2.7839206
H           0.5747730    -3.2360610    -3.2669863
N           1.6000690    -2.0318941    -1.8135856
C           1.4263983    -0.7781122    -1.4420407
N           0.4004763    -0.2006400    -2.1432034
H           0.0713913     0.7490471    -2.0443041
C          -0.1079931    -1.1521555    -3.0066992
H          -0.9289272    -0.9419209    -3.6754164
O           5.7198694    -0.3156063     2.7158288
26
109_C9H13N3O_20-0-9-11 (105,) energy =    -590.2795886
C           2.2181832     0.0894772    -0.5770898
H           1.7522900     0.0645985     0.4185196
H           2.2030002     1.1440131    -0.8820851
C           6.4030564     0.2242199     0.5865226
H           6.4848849     1.2904845     0.8411299
H           7.3512254    -0.2367849     0.8777996
C           5.3268941    -0.3618551     1.4963553
N           4.0648569    -0.4748848     0.9641758
H           3.4262593    -0.9544526     1.5904578
C           3.6794229    -0.4169033    -0.4543767
H           3.7139132    -1.4272422    -0.8809283
C           4.6685889     0.4791220    -1.2062240
H           4.5166977     1.5239965    -0.8997325
H           4.4501866     0.4188046    -2.2792305
C           6.1117139     0.0636252    -0.9103975
H           6.2583865    -0.9828273    -1.2107878
H           6.8161420     0.6616228    -1.5003271
C           0.5409049    -2.3504763    -2.6635086
H           0.4479726    -3.3539132    -3.0560974
N           1.5605197    -2.0122997    -1.7996271
C           1.3894157    -0.7344965    -1.5218752
N           0.2951790    -0.2364371    -2.1795243
H          -0.0474256     0.7125641    -2.1345648
C          -0.2599629    -1.2672271    -2.9141994
H          -1.1370608    -1.1281737    -3.5279857
O           5.5550245    -0.6609909     2.6617901
26
109_C9H13N3O_20-0-9-11 (120,) energy =    -590.2788196
C           2.2712998     0.1898742    -0.7334226
H           1.8499771     0.3387244     0.2703287
H           2.2795101     1.1845541    -1.1990180
C           6.3786710     0.1629467     0.6719589
H           6.4215778     1.1925398     1.0548890
H           7.3177470    -0.3159264     0.9633998
C           5.2640648    -0.5464241     1.4362830
N           4.0319614    -0.5863824     0.8283181
H           3.3674167    -1.1597483     1.3382071
C           3.7256610    -0.3404199    -0.5875835
H           3.7827661    -1.2921444    -1.1308938
C           4.7552019     0.6246935    -1.1837235
H           4.5841094     1.6356403    -0.7862092
H           4.5988020     0.6716197    -2.2681798
C           6.1801574     0.1778837    -0.8486448
H           6.3532592    -0.8267232    -1.2583139
H           6.9147810     0.8408594    -1.3205642
C           0.4454859    -2.4517518    -2.4055060
H           0.3059892    -3.4964750    -2.6478623
N           1.5009559    -2.0338335    -1.6234720
C           1.3832475    -0.7236972    -1.5288621
N           0.2877581    -0.2821940    -2.2234498
H          -0.0209473     0.6758626    -2.3058588
C          -0.3236182    -1.3848402    -2.7902757
H          -1.2120515    -1.3004306    -3.3976812
O           5.4362648    -1.0038285     2.5589234
26
109_C9H13N3O_20-0-9-11 (135,) energy =    -590.2802733
C           3.0786262    -0.5577207    -1.8984711
H           3.3780898     0.2211519    -2.6121727
H           3.4409972    -1.5071473    -2.3154107
C           6.3081976     0.6771642     0.6965027
H           7.0919772     0.6974048    -0.0741148
H           6.7551157     1.0875500     1.6063017
C           5.2228031     1.6571131     0.2573819
N           4.1694083     1.1258584    -0.4475824
H           3.4193140     1.7919736    -0.6057643
C           3.7878434    -0.2860054    -0.5431125
H           3.0616408    -0.5024821     0.2525203
C           4.9981294    -1.2003441    -0.3298607
H           5.6423089    -1.1767805    -1.2211664
H           4.6376186    -2.2297530    -0.2183033
C           5.8050888    -0.7582851     0.8933670
H           5.1701046    -0.8108087     1.7885612
H           6.6487847    -1.4367878     1.0659711
C          -0.4558376    -0.2235749    -1.2198395
H          -1.2732193     0.2438506    -0.6877764
N           0.8532313     0.1339370    -0.9790877
C           1.5852522    -0.6209529    -1.7761927
N           0.7937395    -1.4511067    -2.5240541
H           1.1111697    -2.1231804    -3.2077116
C          -0.5211468    -1.2041318    -2.1754933
H          -1.3443900    -1.7404229    -2.6226154
O           5.3105359     2.8596812     0.4683157
26
109_C9H13N3O_20-0-9-11 (150,) energy =    -590.2837734
C           3.1198269    -0.7110174    -1.8953576
H           3.5206915    -0.0118788    -2.6406368
H           3.3866662    -1.7214495    -2.2337924
C           6.2113421     0.7790887     0.6952329
H           6.9488664     0.9357333    -0.1049262
H           6.6451080     1.1998342     1.6065765
C           4.9881358     1.6283065     0.3543331
N           3.9904929     1.0014180    -0.3504854
H           3.1411542     1.5510335    -0.4545332
C           3.8097476    -0.4379573    -0.5360636
H           3.1297174    -0.8059064     0.2479312
C           5.1261936    -1.2066971    -0.3883083
H           5.7409490    -1.0696839    -1.2902824
H           4.8963452    -2.2759566    -0.3133714
C           5.9047426    -0.7171659     0.8358005
H           5.3081235    -0.8907139     1.7421783
H           6.8333017    -1.2874677     0.9566797
C          -0.3609731     0.0813731    -1.3445559
H          -1.1243907     0.7083760    -0.9046232
N           0.9786596     0.3369161    -1.1476605
C           1.6273987    -0.6061312    -1.8062879
N           0.7525734    -1.4583046    -2.4229725
H           0.9972544    -2.2585481    -2.9882178
C          -0.5289247    -1.0266010    -2.1340281
H          -1.4043755    -1.5396067    -2.5021047
O           4.9233502     2.8161086     0.6436463
26
109_C9H13N3O_20-0-9-11 (165,) energy =    -590.2868997
C           3.1339149    -0.9203435    -1.8646255
H           3.6023639    -0.3176449    -2.6542593
H           3.3095820    -1.9744564    -2.1178870
C           6.1339941     0.8425345     0.6668934
H           6.8397719     1.1224261    -0.1280954
H           6.5245884     1.2728600     1.5934552
C           4.8180062     1.5583094     0.3650383
N           3.8675280     0.8347132    -0.3075763
H           2.9681302     1.2992873    -0.4227308
C           3.8401234    -0.6099658    -0.5265750
H           3.2450564    -1.0834854     0.2722697
C           5.2480582    -1.2100908    -0.4738275
H           5.7949994    -0.9485894    -1.3914988
H           5.1639204    -2.3031136    -0.4469234
C           6.0123489    -0.6838786     0.7441866
H           5.4775549    -0.9694341     1.6607585
H           7.0059203    -1.1435987     0.8046279
C          -0.2742108     0.2234361    -1.4509274
H          -0.9854352     0.9503672    -1.0836613
N           1.0799862     0.3829448    -1.2551753
C           1.6560542    -0.6666896    -1.8137848
N           0.7170445    -1.4956643    -2.3645489
H           0.8989989    -2.3622715    -2.8499847
C          -0.5260901    -0.9341720    -2.1398729
H          -1.4377801    -1.4023712    -2.4783028
O           4.6446778     2.7347634     0.6584406
26
109_C9H13N3O_20-0-9-11 (180,) energy =    -590.2871308
C           3.1066802    -1.0803568    -1.7527199
H           3.6295091    -0.5985358    -2.5913782
H           3.1830706    -2.1639957    -1.9106644
C           6.0888232     0.8886545     0.6850846
H           6.7579279     1.2747404    -0.0967807
H           6.4509442     1.3027847     1.6307223
C           4.7150792     1.5049814     0.4231309
N           3.7914976     0.7165158    -0.2104295
H           2.8723496     1.1387589    -0.3432854
C           3.8609322    -0.7235879    -0.4530666
H           3.3719668    -1.2632846     0.3759670
C           5.3245838    -1.1704907    -0.5269313
H           5.7732019    -0.7881050    -1.4546982
H           5.3642531    -2.2660300    -0.5732850
C           6.1062888    -0.6438066     0.6795905
H           5.6498848    -1.0278564     1.6025027
H           7.1381603    -1.0142114     0.6631052
C          -0.2058383     0.3878030    -1.5540691
H          -0.8668984     1.1909038    -1.2593705
N           1.1454723     0.4426409    -1.2942378
C           1.6586974    -0.6779237    -1.7700751
N           0.6774763    -1.4521304    -2.3297352
H           0.8075808    -2.3545039    -2.7640173
C          -0.5218412    -0.7781538    -2.2002246
H          -1.4524760    -1.1843885    -2.5659510
O           4.4745943     2.6706745     0.7144442
