26
109_C9H13N3O_9-0-20-19 (-165,) energy =    -590.2786929
C           2.5627117    -1.8942711    -0.3424157
H           2.8597309    -2.8546192    -0.7857877
H           1.9566890    -2.1578646     0.5330581
C           5.8161923     1.0345562    -0.0754293
H           5.7123282     1.5893278    -1.0193828
H           6.5858257     1.5560627     0.5005137
C           4.4994053     1.2123908     0.6769082
N           3.5768666     0.1948019     0.5476888
H           2.7445290     0.3508632     1.1083005
C           3.8494741    -1.1874897     0.1306233
H           4.2054998    -1.7639813     1.0004712
C           4.9892187    -1.2018325    -0.8972447
H           4.6550163    -0.7714520    -1.8512244
H           5.2583626    -2.2446124    -1.1009822
C           6.1956534    -0.4240715    -0.3617546
H           6.5485789    -0.9027333     0.5621062
H           7.0290824    -0.4644140    -1.0722635
C          -0.1050619    -0.6380894    -2.4256424
H          -1.1165963    -0.7220896    -2.7995706
N           0.4006025    -1.5484294    -1.5242602
C           1.6418330    -1.1666122    -1.2875454
N           1.9520574    -0.0402440    -2.0035250
H           2.7764603     0.5258843    -1.8692425
C           0.8318157     0.3152194    -2.7297738
H           0.8156346     1.1861810    -3.3673888
O           4.2351529     2.2351147     1.2921145
26
109_C9H13N3O_9-0-20-19 (-150,) energy =    -590.2779840
C           2.5939081    -1.9323963    -0.4037194
H           2.9146531    -2.8471191    -0.9231464
H           1.9951658    -2.2739976     0.4474905
C           5.7935160     1.0369868    -0.0324403
H           5.7117582     1.5948111    -0.9765597
H           6.5342751     1.5693724     0.5709905
C           4.4486917     1.1895695     0.6759854
N           3.5691928     0.1387380     0.5564495
H           2.7037205     0.2850660     1.0659786
C           3.8681463    -1.2262664     0.1128851
H           4.2121898    -1.8208532     0.9755921
C           5.0330124    -1.2076588    -0.8858281
H           4.7217178    -0.7697565    -1.8449575
H           5.3253110    -2.2428660    -1.0967046
C           6.2093920    -0.4128246    -0.3110692
H           6.5406340    -0.8902054     0.6213882
H           7.0651648    -0.4365963    -0.9954219
C          -0.1671810    -0.5112153    -2.2423489
H          -1.2243445    -0.4890536    -2.4699395
N           0.3431753    -1.3780647    -1.3017652
C           1.6437514    -1.1520225    -1.2708813
N           1.9884603    -0.1729922    -2.1661982
H           2.8943855     0.2623588    -2.2490760
C           0.8306671     0.2552532    -2.7858085
H           0.8332775     1.0470916    -3.5196473
O           4.1375125     2.2197441     1.2572052
26
109_C9H13N3O_9-0-20-19 (-135,) energy =    -590.2784429
C           2.5678686    -1.9031792    -0.4013361
H           2.8560875    -2.8408866    -0.9000328
H           1.9690261    -2.1967839     0.4667390
C           5.7861102     1.0406784     0.0829562
H           5.6960125     1.6816496    -0.8054170
H           6.5384516     1.5113296     0.7225066
C           4.4488357     1.1407627     0.8161676
N           3.5781429     0.0920189     0.6502285
H           2.7079290     0.2050361     1.1594332
C           3.8690457    -1.2275996     0.0871081
H           4.2572749    -1.8869706     0.8826723
C           4.9925076    -1.1122150    -0.9489898
H           4.6552028    -0.5528749    -1.8325488
H           5.2721509    -2.1173707    -1.2856353
C           6.1894143    -0.3802612    -0.3318075
H           6.5377307    -0.9424000     0.5455057
H           7.0293625    -0.3461176    -1.0352072
C          -0.1902487    -0.3484643    -2.1295439
H          -1.2520707    -0.1624041    -2.2169392
N           0.3239701    -1.0881064    -1.0886419
C           1.6323661    -1.1139719    -1.2717234
N           1.9736927    -0.4279336    -2.4089336
H           2.9029665    -0.2994090    -2.7787443
C           0.8126584     0.0734751    -2.9629435
H           0.8191862     0.6721125    -3.8614539
O           4.1425979     2.1325106     1.4637701
26
109_C9H13N3O_9-0-20-19 (-120,) energy =    -590.2801577
C           2.5947694    -1.9310176    -0.4152389
H           2.8671897    -2.8807479    -0.8985363
H           1.9831902    -2.1918291     0.4544356
C           5.7727950     1.0359073     0.1632954
H           5.6499907     1.7476092    -0.6648945
H           6.5365859     1.4627273     0.8201233
C           4.4538002     1.0586859     0.9354424
N           3.6069166    -0.0029279     0.7384951
H           2.7371673     0.0687149     1.2557114
C           3.9046032    -1.2715738     0.0738640
H           4.3332763    -1.9787437     0.8052232
C           4.9745337    -1.0485132    -0.9986228
H           4.5713417    -0.4230245    -1.8063955
H           5.2617651    -2.0157724    -1.4290807
C           6.1843599    -0.3390137    -0.3794891
H           6.5859100    -0.9594841     0.4333821
H           6.9890492    -0.2294482    -1.1158230
C          -0.0410676    -0.1397814    -2.1070635
H          -1.0526289     0.2424529    -2.1246670
N           0.4544517    -0.8045389    -1.0077184
C           1.7013131    -1.1215646    -1.3062748
N           2.0188311    -0.6968766    -2.5721980
H           2.8917259    -0.8477282    -3.0551229
C           0.9078004    -0.0626990    -3.0930799
H           0.9063924     0.3694367    -4.0824770
O           4.1417736     2.0056189     1.6447187
26
109_C9H13N3O_9-0-20-19 (-105,) energy =    -590.2814087
C           2.6288197    -1.9754855    -0.3964412
H           2.9209726    -2.9008540    -0.9115699
H           2.0302293    -2.2747921     0.4702748
C           5.6922590     1.0977159     0.1752233
H           5.5385286     1.8029543    -0.6532412
H           6.4412153     1.5555809     0.8284170
C           4.3747515     1.0727932     0.9495087
N           3.5818683    -0.0335167     0.7817140
H           2.6913457     0.0224453     1.2645029
C           3.9196607    -1.2855577     0.1072155
H           4.3697374    -1.9856626     0.8321715
C           4.9725409    -1.0233576    -0.9728688
H           4.5315650    -0.4283606    -1.7842647
H           5.2992048    -1.9818502    -1.3955988
C           6.1560955    -0.2600642    -0.3679104
H           6.5923797    -0.8603789     0.4422928
H           6.9479931    -0.1183402    -1.1126901
C           0.0620035     0.0424912    -1.9345221
H          -0.8794953     0.5710747    -1.8730805
N           0.5852546    -0.6182665    -0.8452956
C           1.7248261    -1.1445447    -1.2541692
N           1.9477536    -0.8531729    -2.5764926
H           2.7305914    -1.1613357    -3.1342233
C           0.8854882    -0.0905872    -3.0223426
H           0.8247255     0.2701748    -4.0380657
O           4.0188083     2.0200884     1.6377250
26
109_C9H13N3O_9-0-20-19 (-90,) energy =    -590.2819242
C           2.6663125    -2.0213605    -0.4552808
H           2.9889222    -2.9100081    -1.0130258
H           2.0732799    -2.3790317     0.3933315
C           5.6530798     1.1061410     0.1914935
H           5.5218998     1.8102739    -0.6415200
H           6.3709939     1.5738832     0.8723589
C           4.3054294     1.0677501     0.9121194
N           3.5559874    -0.0704588     0.7653055
H           2.6233090    -0.0036710     1.1596653
C           3.9308917    -1.3122279     0.0939947
H           4.3717593    -2.0093570     0.8270641
C           5.0022421    -1.0331052    -0.9633093
H           4.5646129    -0.4557406    -1.7896953
H           5.3584383    -1.9869659    -1.3727131
C           6.1557650    -0.2446154    -0.3339069
H           6.5827974    -0.8336284     0.4895226
H           6.9634801    -0.0912045    -1.0592229
C           0.2110464     0.2086791    -1.8752925
H          -0.6368251     0.8696322    -1.7580547
N           0.7576893    -0.4521497    -0.7979819
C           1.7592267    -1.1640297    -1.2810112
N           1.8750911    -0.9841444    -2.6355095
H           2.5477287    -1.4298506    -3.2424216
C           0.8830505    -0.1062531    -3.0283060
H           0.7528764     0.1897129    -4.0582755
O           3.8946675     2.0308075     1.5462753
26
109_C9H13N3O_9-0-20-19 (-75,) energy =    -590.2815575
C           2.7012361    -2.0187998    -0.5128707
H           3.0542367    -2.8670623    -1.1121694
H           2.1246292    -2.4412735     0.3183348
C           5.6489806     1.1234771     0.2657424
H           5.5528944     1.8560697    -0.5470325
H           6.3431599     1.5648553     0.9879442
C           4.2714491     1.0747160     0.9277207
N           3.5411263    -0.0742175     0.7693124
H           2.5715648     0.0125837     1.0583072
C           3.9411868    -1.2961074     0.0774837
H           4.3775138    -2.0027378     0.8038479
C           5.0274591    -0.9873423    -0.9566478
H           4.5991443    -0.3951350    -1.7775889
H           5.3961208    -1.9293881    -1.3822893
C           6.1659773    -0.2113208    -0.2860430
H           6.5792396    -0.8216481     0.5289651
H           6.9871325    -0.0361678    -0.9911263
C           0.3155142     0.3337159    -1.8547067
H          -0.4336522     1.0996182    -1.7079988
N           0.9312124    -0.2788353    -0.7868395
C           1.7732378    -1.1533584    -1.3068273
N           1.7237524    -1.1200812    -2.6761346
H           2.2643471    -1.6934486    -3.3075065
C           0.7873419    -0.1714787    -3.0392938
H           0.5492662     0.0351387    -4.0716683
O           3.8250194     2.0419751     1.5311020
26
109_C9H13N3O_9-0-20-19 (-60,) energy =    -590.2802089
C           2.7368238    -1.9775382    -0.5533986
H           3.1120631    -2.7982372    -1.1762597
H           2.1735442    -2.4462760     0.2646647
C           5.6798634     1.1362904     0.4024671
H           5.6319437     1.9285098    -0.3563478
H           6.3572125     1.5067558     1.1789445
C           4.2752180     1.0828175     1.0054624
N           3.5445230    -0.0604101     0.8072251
H           2.5544097     0.0555425     1.0011543
C           3.9570859    -1.2516482     0.0693910
H           4.3974930    -1.9792663     0.7719469
C           5.0486996    -0.8972501    -0.9451979
H           4.6267687    -0.2607797    -1.7354604
H           5.4147447    -1.8175393    -1.4182528
C           6.1885942    -0.1683138    -0.2259757
H           6.5944852    -0.8294393     0.5523375
H           7.0140542     0.0423408    -0.9161693
C           0.3947457     0.4171386    -1.9150322
H          -0.2518068     1.2753819    -1.7939780
N           1.1154433    -0.0896201    -0.8575646
C           1.7874518    -1.1208017    -1.3358939
N           1.5299915    -1.2881912    -2.6715234
H           1.9178496    -2.0042990    -3.2685441
C           0.6328773    -0.3097426    -3.0533688
H           0.2593221    -0.2346447    -4.0632647
O           3.8112901     2.0450169     1.6039937
26
109_C9H13N3O_9-0-20-19 (-45,) energy =    -590.2788138
C           2.1971615    -1.1009102     0.2971552
H           1.9901686    -2.1773940     0.3559508
H           1.7511033    -0.6624478     1.2028964
C           6.1363768     0.4001053    -0.7727419
H           5.9523398     0.7726817    -1.7897266
H           7.1516442     0.7118588    -0.5091460
C           5.1790339     1.1676994     0.1348210
N           4.0771912     0.4887795     0.5842066
H           3.4329766     1.0714512     1.1055827
C           3.7288194    -0.9148980     0.3827156
H           4.0432804    -1.4887596     1.2720541
C           4.4832439    -1.4859378    -0.8219387
H           4.0562970    -1.0760282    -1.7453542
H           4.3436111    -2.5740227    -0.8437723
C           5.9689987    -1.1232834    -0.7345468
H           6.3904071    -1.5257794     0.1974145
H           6.5280800    -1.5862156    -1.5561926
C           0.8718310     0.7121655    -2.5475068
H           0.8358318     1.5892609    -3.1793690
N           1.7243094     0.6476294    -1.4675154
C           1.5239474    -0.5360435    -0.9210732
N           0.5739197    -1.2392752    -1.6197359
H           0.2341258    -2.1645833    -1.3999800
C           0.1433260    -0.4437553    -2.6629493
H          -0.6110202    -0.7710843    -3.3623845
O           5.3662370     2.3429891     0.4231758
26
109_C9H13N3O_9-0-20-19 (-30,) energy =    -590.2784843
C           2.2094120    -1.1514620     0.2484779
H           2.0097763    -2.2308213     0.2965679
H           1.7346881    -0.7246540     1.1461209
C           6.1017324     0.4741644    -0.7342354
H           5.8748765     0.8541944    -1.7396185
H           7.1079305     0.8260340    -0.4871482
C           5.1363586     1.1749333     0.2157991
N           4.0604613     0.4443506     0.6462193
H           3.4305488     0.9737608     1.2377037
C           3.7355863    -0.9547511     0.3771946
H           4.0328814    -1.5555861     1.2543277
C           4.5299559    -1.4741795    -0.8264310
H           4.1009689    -1.0650508    -1.7474361
H           4.4316461    -2.5661678    -0.8661297
C           5.9991379    -1.0552110    -0.7167275
H           6.4305797    -1.4510557     0.2136330
H           6.5826590    -1.4837328    -1.5400238
C           0.9982438     0.5929277    -2.6940104
H           1.0720082     1.3865354    -3.4250807
N           1.9316335     0.4607530    -1.6888164
C           1.5583541    -0.5904565    -0.9853772
N           0.4135381    -1.1413228    -1.5063066
H          -0.0758485    -1.9504807    -1.1515785
C           0.0439278    -0.3864733    -2.6024574
H          -0.8307806    -0.6182255    -3.1911328
O           5.2960000     2.3383706     0.5636461
26
109_C9H13N3O_9-0-20-19 (-15,) energy =    -590.2786045
C           2.2388667    -1.2425071     0.2011281
H           2.0585163    -2.3270559     0.2170837
H           1.7408523    -0.8501941     1.1020329
C           6.0795866     0.4746154    -0.7519375
H           5.8147174     0.8244575    -1.7589378
H           7.0742072     0.8732060    -0.5307669
C           5.1050263     1.1454822     0.2085743
N           4.0517053     0.3831040     0.6404136
H           3.4246563     0.8855508     1.2581550
C           3.7573662    -1.0216710     0.3621717
H           4.0437163    -1.6155913     1.2473841
C           4.5889142    -1.5343733    -0.8208866
H           4.1580286    -1.1627485    -1.7554151
H           4.5326871    -2.6299571    -0.8347996
C           6.0394522    -1.0569163    -0.7041124
H           6.4785853    -1.4158972     0.2376561
H           6.6466353    -1.4777584    -1.5141524
C           1.1024286     0.4873178    -2.7840938
H           1.2523523     1.1959805    -3.5871111
N           2.0849707     0.2533752    -1.8459307
C           1.5931792    -0.6524832    -1.0235884
N           0.3228124    -1.0109397    -1.4021365
H          -0.2734371    -1.6813378    -0.9382666
C          -0.0019913    -0.2824426    -2.5303525
H          -0.9562161    -0.3843255    -3.0247332
O           5.2371412     2.3090678     0.5678849
26
109_C9H13N3O_9-0-20-19 (0,) energy =    -590.2789510
C           2.2516682    -1.3244139     0.1418091
H           2.1150752    -2.4155016     0.1063048
H           1.7277790    -0.9941022     1.0524679
C           6.0571175     0.4974263    -0.7527331
H           5.8037377     0.8263961    -1.7696193
H           7.0339251     0.9293698    -0.5151886
C           5.0429182     1.1496334     0.1789637
N           4.0023030     0.3614506     0.5958932
H           3.3546629     0.8487569     1.2046074
C           3.7583768    -1.0555696     0.3306016
H           4.0439794    -1.6290649     1.2294281
C           4.6311721    -1.5580880    -0.8276785
H           4.2081943    -1.2123237    -1.7750800
H           4.6090151    -2.6549685    -0.8257705
C           6.0630819    -1.0340518    -0.6855105
H           6.4933176    -1.3669220     0.2699700
H           6.7004551    -1.4453794    -1.4770211
C           1.1240256     0.3960887    -2.8542761
H           1.3073524     1.0228771    -3.7161852
N           2.1411917     0.0638311    -1.9852200
C           1.5933927    -0.6971456    -1.0584229
N           0.2520724    -0.8638911    -1.3009878
H          -0.3965667    -1.3949792    -0.7376729
C          -0.0586448    -0.1657033    -2.4521428
H          -1.0593642    -0.1401639    -2.8561747
O           5.1331636     2.3201001     0.5291342
26
109_C9H13N3O_9-0-20-19 (15,) energy =    -590.2795191
C           2.2775312    -1.4137317     0.0886600
H           2.1881018    -2.5073887     0.0033917
H           1.7208557    -1.1450719     0.9993269
C           6.0504173     0.5318102    -0.6891591
H           5.8168042     0.8538833    -1.7130312
H           7.0057366     0.9938981    -0.4228869
C           4.9900308     1.1494276     0.2141308
N           3.9537004     0.3321083     0.5854157
H           3.2835827     0.7929666     1.1906329
C           3.7686743    -1.0943333     0.3205321
H           4.0479487    -1.6553457     1.2292101
C           4.6923028    -1.5678171    -0.8105101
H           4.2853440    -1.2364728    -1.7698265
H           4.7052595    -2.6648596    -0.8071253
C           6.1016665    -0.9989939    -0.6227084
H           6.5121110    -1.3192333     0.3457945
H           6.7764703    -1.3886057    -1.3938706
C           1.1590365     0.2805699    -2.9262404
H           1.3557713     0.8150426    -3.8455010
N           2.1873543    -0.1514682    -2.1167352
C           1.6165021    -0.7547324    -1.0926459
N           0.2493416    -0.7203850    -1.2141165
H          -0.4188494    -1.0996620    -0.5585871
C          -0.0540665    -0.0599651    -2.3889675
H          -1.0715578     0.1002246    -2.7119166
O           5.0378799     2.3182250     0.5780865
26
109_C9H13N3O_9-0-20-19 (30,) energy =    -590.2803080
C           2.3203656    -1.4879346     0.0144722
H           2.2832097    -2.5803041    -0.1133557
H           1.7358410    -1.2779720     0.9221910
C           6.0567982     0.5938335    -0.6315962
H           5.8527596     0.9287707    -1.6577806
H           6.9890049     1.0759832    -0.3225988
C           4.9484683     1.1677428     0.2428938
N           3.9124515     0.3220449     0.5492501
H           3.2200158     0.7511925     1.1529440
C           3.7933353    -1.1116573     0.2832443
H           4.0746539    -1.6628106     1.1974655
C           4.7600806    -1.5408740    -0.8282282
H           4.3662747    -1.2092408    -1.7933443
H           4.8043257    -2.6370491    -0.8404505
C           6.1468996    -0.9363077    -0.5907345
H           6.5386440    -1.2626457     0.3835096
H           6.8541004    -1.2930290    -1.3486062
C           1.1780744     0.1531827    -3.0187778
H           1.3620829     0.5847524    -3.9931408
N           2.2033178    -0.3802731    -2.2692465
C           1.6516694    -0.8109771    -1.1511342
N           0.3014870    -0.5645059    -1.1551570
H          -0.3482426    -0.7892554    -0.4153577
C          -0.0138384     0.0499154    -2.3509467
H          -1.0219893     0.3471792    -2.5967850
O           4.9549098     2.3290873     0.6325921
26
109_C9H13N3O_9-0-20-19 (45,) energy =    -590.2812449
C           2.3482155    -1.5538370     0.0171329
H           2.3531804    -2.6431543    -0.1326061
H           1.7525726    -1.3808139     0.9246522
C           6.0074245     0.6758668    -0.5919992
H           5.7878384     1.0170612    -1.6130918
H           6.9223620     1.1876863    -0.2794653
C           4.8820914     1.1947525     0.2948629
N           3.8650285     0.3135608     0.5684411
H           3.1684989     0.7034786     1.1939802
C           3.8066083    -1.1238189     0.2965479
H           4.1076373    -1.6682735     1.2084235
C           4.7902332    -1.5044797    -0.8167905
H           4.3824923    -1.1860819    -1.7811394
H           4.8765504    -2.5979563    -0.8386667
C           6.1533040    -0.8504445    -0.5728736
H           6.5585020    -1.1749025     0.3964332
H           6.8723663    -1.1700087    -1.3360917
C           1.1517101    -0.0160620    -3.0452268
H           1.2923412     0.2857465    -4.0742095
N           2.1508291    -0.6548503    -2.3453244
C           1.6640721    -0.8797256    -1.1392515
N           0.3826750    -0.3996709    -1.0409339
H          -0.2086492    -0.4413831    -0.2233593
C           0.0416391     0.1525592    -2.2592499
H          -0.9240317     0.6004061    -2.4381246
O           4.8539900     2.3442664     0.7168524
26
109_C9H13N3O_9-0-20-19 (60,) energy =    -590.2821588
C           2.3549737    -1.6338099    -0.0000804
H           2.3860086    -2.7170538    -0.1764228
H           1.7505923    -1.4911110     0.9066154
C           5.9385369     0.7160699    -0.5846525
H           5.6960416     1.0649059    -1.5980687
H           6.8395789     1.2534696    -0.2749075
C           4.8079690     1.1825434     0.3239402
N           3.8183865     0.2659557     0.5857873
H           3.1250215     0.6201643     1.2357680
C           3.8027657    -1.1689699     0.2924106
H           4.1206972    -1.7187264     1.1950009
C           4.7919078    -1.5009840    -0.8306708
H           4.3672215    -1.1906334    -1.7910249
H           4.9146605    -2.5903308    -0.8677743
C           6.1343801    -0.8046461    -0.5896581
H           6.5587734    -1.1290551     0.3712906
H           6.8566404    -1.0893469    -1.3634926
C           1.1341016    -0.1834445    -3.0890283
H           1.2164789    -0.0137937    -4.1540291
N           2.0614988    -0.9439578    -2.4126742
C           1.6713929    -0.9545270    -1.1510308
N           0.5214500    -0.2237014    -0.9963257
H           0.0237404    -0.0703057    -0.1311898
C           0.1660974     0.2747994    -2.2332054
H          -0.7119751     0.8859220    -2.3766936
O           4.7497054     2.3208803     0.7719403
26
109_C9H13N3O_9-0-20-19 (75,) energy =    -590.2828340
C           2.3498761    -1.6862025     0.0158732
H           2.3853415    -2.7651580    -0.1744248
H           1.7507669    -1.5515308     0.9274655
C           5.8566683     0.7608163    -0.5845941
H           5.5686916     1.1331006    -1.5776197
H           6.7533234     1.3140420    -0.2904070
C           4.7502566     1.1657034     0.3810327
N           3.7925122     0.2155378     0.6454855
H           3.1334578     0.5209535     1.3536704
C           3.7975506    -1.2084196     0.3003069
H           4.1444557    -1.7836747     1.1753147
C           4.7637747    -1.4808076    -0.8579222
H           4.3049195    -1.1610370    -1.7997889
H           4.9145092    -2.5644386    -0.9302721
C           6.0936365    -0.7529711    -0.6417971
H           6.5601170    -1.0922984     0.2939662
H           6.7957713    -0.9947063    -1.4479704
C           1.0708383    -0.3681312    -3.1020508
H           1.0566305    -0.3428755    -4.1832736
N           1.8974585    -1.2305930    -2.4170879
C           1.6649537    -1.0126267    -1.1348367
N           0.7146012    -0.0375802    -0.9752769
H           0.3741744     0.3266667    -0.0972773
C           0.3268472     0.3848154    -2.2302661
H          -0.4240539     1.1468215    -2.3740355
O           4.6818661     2.2841876     0.8749085
26
109_C9H13N3O_9-0-20-19 (90,) energy =    -590.2834633
C           2.3382143    -1.7403158     0.0070933
H           2.3770011    -2.8171834    -0.1877577
H           1.7335222    -1.6054504     0.9151146
C           5.7633054     0.8258747    -0.5118846
H           5.4252866     1.2424526    -1.4711711
H           6.6526828     1.3914889    -0.2198406
C           4.6845655     1.1346794     0.5179928
N           3.7481933     0.1492933     0.7344010
H           3.1332623     0.3730082     1.5104030
C           3.7810806    -1.2519359     0.2981425
H           4.1570153    -1.8691365     1.1308926
C           4.7311084    -1.4283951    -0.8912229
H           4.2472670    -1.0691151    -1.8063630
H           4.9093894    -2.5007469    -1.0313438
C           6.0441071    -0.6740023    -0.6638419
H           6.5436155    -1.0523355     0.2391296
H           6.7324432    -0.8465538    -1.4990566
C           1.0168756    -0.5970231    -3.1563617
H           0.8878258    -0.7162161    -4.2236441
N           1.7134627    -1.5231528    -2.4123818
C           1.6675004    -1.0906626    -1.1641319
N           0.9666556     0.0847004    -1.0838896
H           0.8451376     0.6496981    -0.2560322
C           0.5471196     0.4133540    -2.3564140
H          -0.0351471     1.2996944    -2.5583312
O           4.6147640     2.2083300     1.1022657
26
109_C9H13N3O_9-0-20-19 (105,) energy =    -590.2844070
C           2.3383650    -1.7877875     0.0196727
H           2.3771718    -2.8641445    -0.1747780
H           1.7455282    -1.6525979     0.9360247
C           5.7273599     0.8458505    -0.4665624
H           5.3703019     1.3119327    -1.3958308
H           6.6205890     1.3985432    -0.1620716
C           4.6675797     1.0978367     0.5981384
N           3.7270125     0.1042245     0.7735395
H           3.1449254     0.2753691     1.5882173
C           3.7777462    -1.2833641     0.2865277
H           4.1948496    -1.9190701     1.0845099
C           4.6937441    -1.3908756    -0.9364439
H           4.1842928    -0.9801286    -1.8162231
H           4.8703349    -2.4525371    -1.1427317
C           6.0094839    -0.6427618    -0.7044659
H           6.5325303    -1.0658734     0.1645316
H           6.6775308    -0.7674133    -1.5641957
C           0.8508009    -0.7907053    -3.1169091
H           0.5622877    -1.0099774    -4.1360590
N           1.4544230    -1.7417819    -2.3238805
C           1.6532996    -1.1591726    -1.1545569
N           1.2025670     0.1355385    -1.1713246
H           1.3334133     0.8131890    -0.4339555
C           0.6912482     0.3850176    -2.4284249
H           0.2664016     1.3408123    -2.6960183
O           4.6085319     2.1384618     1.2392389
26
109_C9H13N3O_9-0-20-19 (120,) energy =    -590.2851450
C           2.3493305    -1.7706117    -0.0664436
H           2.4009343    -2.8442329    -0.2711763
H           1.7439528    -1.6546372     0.8454761
C           5.7594551     0.8756965    -0.4354179
H           5.4315535     1.3694531    -1.3612965
H           6.6510778     1.4094558    -0.0950206
C           4.6747003     1.1158506     0.6068548
N           3.7002048     0.1410956     0.7144358
H           3.1021841     0.2984374     1.5210790
C           3.7739231    -1.2481088     0.2261615
H           4.1866687    -1.8793293     1.0298405
C           4.7132432    -1.3405755    -0.9798185
H           4.2250415    -0.9065332    -1.8611427
H           4.8859499    -2.3996323    -1.2022204
C           6.0306697    -0.6096525    -0.7055813
H           6.5321625    -1.0598668     0.1624152
H           6.7147602    -0.7190887    -1.5546299
C           0.6787950    -0.8332394    -3.1288065
H           0.2399638    -1.0954605    -4.0820443
N           1.2361401    -1.7914181    -2.3104877
C           1.6623010    -1.1430888    -1.2412936
N           1.3981645     0.1982349    -1.3436703
H           1.7125757     0.9031976    -0.6914796
C           0.7734022     0.4096277    -2.5557578
H           0.4625170     1.3922220    -2.8776277
O           4.6179239     2.1360380     1.2788715
26
109_C9H13N3O_9-0-20-19 (135,) energy =    -590.2852223
C           2.3758575    -1.7666251    -0.0999983
H           2.4634256    -2.8345320    -0.3217148
H           1.7595692    -1.6923680     0.8100219
C           5.7854154     0.9278092    -0.3230599
H           5.5035254     1.4539565    -1.2463766
H           6.6656328     1.4420744     0.0724124
C           4.6562869     1.1502797     0.6757640
N           3.6595882     0.1884717     0.7018801
H           3.0258340     0.3335460     1.4837371
C           3.7754787    -1.2028079     0.2209152
H           4.1865453    -1.8213793     1.0352599
C           4.7485188    -1.2724188    -0.9594879
H           4.2863147    -0.8185505    -1.8450959
H           4.9284299    -2.3268423    -1.1978129
C           6.0582932    -0.5506635    -0.6288078
H           6.5338147    -1.0275296     0.2394867
H           6.7663407    -0.6374807    -1.4606339
C           0.4630326    -0.8497649    -3.0225702
H          -0.1237315    -1.1244419    -3.8887804
N           1.0194584    -1.8077823    -2.2037054
C           1.6597577    -1.1407037    -1.2604441
N           1.5289436     0.2115664    -1.4399301
H           1.9724809     0.9139267    -0.8635091
C           0.7672576     0.4103423    -2.5730424
H           0.5284911     1.3979607    -2.9381797
O           4.5795341     2.1513220     1.3727206
26
109_C9H13N3O_9-0-20-19 (150,) energy =    -590.2843574
C           2.3991010    -1.8233983    -0.1631284
H           2.5453676    -2.8810109    -0.4042676
H           1.7670680    -1.8082555     0.7392955
C           5.7607230     0.9615725    -0.2343501
H           5.5249109     1.5020470    -1.1624524
H           6.6136990     1.4764111     0.2161813
C           4.5756662     1.1616167     0.7034798
N           3.5855133     0.1919410     0.6582757
H           2.8975338     0.3307169     1.3942630
C           3.7608006    -1.2005274     0.1983590
H           4.1649289    -1.7977017     1.0320040
C           4.7821863    -1.2472615    -0.9426501
H           4.3502964    -0.7965935    -1.8451519
H           4.9908314    -2.2971906    -1.1777105
C           6.0655245    -0.5086452    -0.5504148
H           6.5120125    -0.9918374     0.3296855
H           6.8084330    -0.5734646    -1.3533454
C           0.2650992    -0.9032499    -2.9256366
H          -0.4489587    -1.1709732    -3.6928418
N           0.8243438    -1.8581330    -2.1053273
C           1.6466479    -1.2028400    -1.3062868
N           1.6264477     0.1404497    -1.5750331
H           2.1634424     0.8331643    -1.0703509
C           0.7448728     0.3444353    -2.6166662
H           0.5613608     1.3249539    -3.0296331
O           4.4493376     2.1553101     1.4028141
26
109_C9H13N3O_9-0-20-19 (165,) energy =    -590.2826132
C           2.4370123    -1.8480794    -0.2315414
H           2.6269069    -2.8890140    -0.5146775
H           1.8074156    -1.9020360     0.6702713
C           5.7894722     0.9663055    -0.1894550
H           5.5984136     1.5140846    -1.1237250
H           6.6230560     1.4753898     0.3020098
C           4.5618570     1.1674800     0.6926207
N           3.5738980     0.1995255     0.5997187
H           2.8389959     0.3487685     1.2864479
C           3.7749717    -1.1952101     0.1610036
H           4.1617584    -1.7803843     1.0113012
C           4.8368590    -1.2410626    -0.9438534
H           4.4393812    -0.7925311    -1.8633588
H           5.0563764    -2.2908656    -1.1693924
C           6.1041820    -0.5027090    -0.5012096
H           6.5150472    -0.9906125     0.3935119
H           6.8782211    -0.5648478    -1.2743885
C           0.0934759    -0.8366871    -2.7836732
H          -0.7437842    -1.0606739    -3.4310294
N           0.6341850    -1.7966760    -1.9573249
C           1.6346996    -1.2046766    -1.3310788
N           1.7459409     0.1059981    -1.7130493
H           2.3792253     0.7714289    -1.2904429
C           0.7600338     0.3543162    -2.6465415
H           0.6437312     1.3200898    -3.1148049
O           4.4032379     2.1638240     1.3811571
26
109_C9H13N3O_9-0-20-19 (180,) energy =    -590.2804456
C           2.4742668    -1.9002367    -0.3068612
H           2.7195685    -2.9091394    -0.6604805
H           1.8556282    -2.0533103     0.5887686
C           5.7960185     0.9591403    -0.1545354
H           5.6515335     1.5126707    -1.0938835
H           6.6030403     1.4676554     0.3800597
C           4.5241163     1.1568814     0.6646944
N           3.5541313     0.1776210     0.5367699
H           2.7711937     0.3356850     1.1653606
C           3.7866462    -1.2164333     0.1198620
H           4.1568703    -1.7905723     0.9850463
C           4.8883804    -1.2565747    -0.9470394
H           4.5241266    -0.8164036    -1.8846365
H           5.1262050    -2.3050550    -1.1598938
C           6.1318241    -0.5070407    -0.4575321
H           6.5115568    -0.9942099     0.4511876
H           6.9352280    -0.5627264    -1.2007131
C          -0.0503677    -0.7683856    -2.6267006
H          -0.9885376    -0.9286708    -3.1408830
N           0.4672694    -1.7175960    -1.7735130
C           1.6095802    -1.2199771    -1.3374246
N           1.8404618     0.0201148    -1.8714548
H           2.5677713     0.6497357    -1.5626154
C           0.7755557     0.3239066    -2.6968322
H           0.7189620     1.2554636    -3.2393926
O           4.3225824     2.1624407     1.3284676
