19
063_C6H8N4O_0-2-3-5 (-165,) energy =    -527.7180734
N           4.9040530     0.2114694    -1.6144328
H           5.7922599     0.4647283    -2.0285002
C           4.0769389    -0.5046435    -2.5181641
N           2.8355507    -0.8278922    -2.0710064
H           2.6435256    -0.6238347    -1.0933519
C           2.0433138    -1.8222866    -2.7731737
H           0.9794055    -1.6107105    -2.6303157
H           2.2516837    -2.8417930    -2.4199220
H           2.2797627    -1.7694690    -3.8366688
O           4.5301578    -0.7772337    -3.6219900
C           4.5496949     1.4556911     2.2347398
H           4.4713464     1.7941367     3.2611896
C           5.6856138     1.6970487     1.4570205
H           6.5384802     2.2389817     1.8632727
N           5.8015552     1.2911499     0.1957807
C           4.7458738     0.6195417    -0.3109839
N           3.6057764     0.3307914     0.3428901
C           3.5263358     0.7545214     1.6089859
H           2.6014652     0.5169807     2.1314253
19
063_C6H8N4O_0-2-3-5 (-150,) energy =    -527.7156389
N           4.8175048     0.3010053    -1.5181073
H           5.7032997     0.5193021    -1.9571745
C           3.9183547    -0.3326471    -2.4131707
N           2.6665383    -0.5979279    -1.9377220
H           2.5333591    -0.3795994    -0.9522678
C           1.9429093    -1.7496816    -2.4603561
H           0.8704163    -1.6116790    -2.2957465
H           2.2582067    -2.6872053    -1.9809720
H           2.1303059    -1.8257701    -3.5321630
O           4.3286511    -0.6230829    -3.5278935
C           4.6611331     1.5042480     2.3577871
H           4.6367706     1.8301992     3.3909620
C           5.7880591     1.6790376     1.5500155
H           6.6883840     2.1532539     1.9380454
N           5.8381835     1.2875027     0.2796929
C           4.7236625     0.7002066    -0.2043120
N           3.5855699     0.4819546     0.4784060
C           3.5726698     0.8878615     1.7526535
H           2.6484519     0.7077096     2.2986145
19
063_C6H8N4O_0-2-3-5 (-135,) energy =    -527.7113232
N           4.7912075     0.3305472    -1.5532189
H           5.6890404     0.5288295    -1.9778994
C           3.8738187    -0.2298156    -2.4767334
N           2.6027795    -0.4852426    -2.0215597
H           2.4790840    -0.2210169    -1.0450381
C           2.0040917    -1.7728163    -2.3713619
H           0.9221412    -1.7223485    -2.2200705
H           2.4098897    -2.5957662    -1.7657356
H           2.2014840    -1.9802786    -3.4241169
O           4.2870798    -0.5088472    -3.5916178
C           4.6519004     1.4485397     2.3494862
H           4.6328895     1.7504807     3.3900533
C           5.7990564     1.5720226     1.5611871
H           6.7212718     1.9798743     1.9724014
N           5.8430503     1.2084029     0.2820833
C           4.7011956     0.7045911    -0.2301067
N           3.5416410     0.5440717     0.4306662
C           3.5353207     0.9179481     1.7146714
H           2.5931657     0.7847599     2.2431059
19
063_C6H8N4O_0-2-3-5 (-120,) energy =    -527.7056529
N           4.7854890     0.3275680    -1.5875524
H           5.6956053     0.5099003    -1.9938772
C           3.8524683    -0.1456323    -2.5423746
N           2.5637354    -0.4040467    -2.1091309
H           2.4290139    -0.0842488    -1.1502320
C           2.0908982    -1.7838421    -2.2743603
H           1.0153864    -1.8167383    -2.0800558
H           2.5970891    -2.4837560    -1.5936120
H           2.2678678    -2.1023329    -3.3033531
O           4.2655841    -0.3890023    -3.6635472
C           4.6326093     1.3912557     2.3302654
H           4.6114340     1.6770900     3.3753408
C           5.7998724     1.4617637     1.5656847
H           6.7359687     1.8098369     1.9997349
N           5.8470594     1.1168772     0.2812420
C           4.6885297     0.6875892    -0.2590301
N           3.5090962     0.5845669     0.3761293
C           3.4991703     0.9374776     1.6659600
H           2.5405448     0.8519855     2.1742477
19
063_C6H8N4O_0-2-3-5 (-105,) energy =    -527.6995023
N           4.7580819     0.3457959    -1.6351043
H           5.6780111     0.5087682    -2.0281052
C           3.8167086    -0.0600831    -2.6109769
N           2.5129509    -0.3343664    -2.1927329
H           2.3638440     0.0684109    -1.2669273
C           2.1838453    -1.7688390    -2.1368652
H           1.1151126    -1.8759313    -1.9322961
H           2.7494175    -2.3047589    -1.3600422
H           2.3962042    -2.2239783    -3.1068509
O           4.2253373    -0.2570768    -3.7404363
C           4.6021646     1.3239213     2.3068908
H           4.5793254     1.5855953     3.3582701
C           5.7829230     1.3491958     1.5609305
H           6.7292467     1.6365844     2.0165676
N           5.8310884     1.0316234     0.2691279
C           4.6601246     0.6779785    -0.2974614
N           3.4670276     0.6267754     0.3169573
C           3.4563769     0.9492964     1.6147625
H           2.4864301     0.9058113     2.1065990
19
063_C6H8N4O_0-2-3-5 (-90,) energy =    -527.6937587
N           4.7459562     0.3384957    -1.6942581
H           5.6750482     0.4874783    -2.0716408
C           3.7995671     0.0006369    -2.6896235
N           2.4832711    -0.2988151    -2.2858243
H           2.2975906     0.1958554    -1.4117062
C           2.2906222    -1.7349595    -1.9977190
H           1.2360063    -1.9001758    -1.7614796
H           2.9021924    -2.0938243    -1.1562572
H           2.5371726    -2.3170857    -2.8894040
O           4.2016349    -0.1283497    -3.8285487
C           4.5683133     1.2461919     2.2650292
H           4.5389921     1.4883636     3.3209472
C           5.7605925     1.2345092     1.5378041
H           6.7106478     1.4726653     2.0135306
N           5.8154448     0.9389705     0.2407215
C           4.6398410     0.6465061    -0.3497695
N           3.4356991     0.6370917     0.2439372
C           3.4188396     0.9355257     1.5475034
H           2.4400777     0.9262151     2.0234803
19
063_C6H8N4O_0-2-3-5 (-75,) energy =    -527.6964253
N           4.7629571     0.2554199    -1.6335233
H           5.6722891     0.4502618    -2.0356070
C           3.8044198     0.0175817    -2.6258275
N           2.4808797    -0.1968017    -2.2284562
H           1.9460357    -0.0817042    -3.0876739
C           2.1272240    -1.4964887    -1.6282376
H           2.3934793    -2.3456317    -2.2734280
H           1.0472083    -1.5069861    -1.4581664
H           2.6193900    -1.5958530    -0.6605671
O           4.1419165     0.1263343    -3.7958438
C           4.7524817     1.1995586     2.3195494
H           4.7680749     1.4659332     3.3701391
C           5.8682323     1.3614113     1.4965334
H           6.8036984     1.7595749     1.8868108
N           5.8618669     1.0470418     0.2027659
C           4.7039084     0.5496307    -0.2791940
N           3.5848895     0.3205451     0.4170512
C           3.6244983     0.6598462     1.7098940
H           2.7111268     0.4795887     2.2747389
19
063_C6H8N4O_0-2-3-5 (-60,) energy =    -527.6994493
N           4.7320638     0.2294155    -1.6380139
H           5.6375708     0.4426091    -2.0400791
C           3.7594557     0.0954219    -2.6450631
N           2.4717334    -0.2600888    -2.2776013
H           1.9138029    -0.1856924    -3.1240695
C           2.1987581    -1.5261094    -1.5831288
H           2.5360314    -2.4010330    -2.1565058
H           1.1187743    -1.6010896    -1.4300712
H           2.6738770    -1.5177697    -0.6028654
O           4.0745340     0.3673277    -3.7952419
C           4.7480937     1.1934739     2.3118182
H           4.7725255     1.4624223     3.3615552
C           5.8834031     1.2595529     1.5020111
H           6.8431694     1.5832134     1.9022164
N           5.8681255     0.9394604     0.2100020
C           4.6794013     0.5356734    -0.2860083
N           3.5341351     0.4130451     0.3950816
C           3.5861683     0.7515692     1.6878954
H           2.6521815     0.6561728     2.2396041
19
063_C6H8N4O_0-2-3-5 (-45,) energy =    -527.7012444
N           4.7153334     0.2049841    -1.6480931
H           5.6170268     0.4351671    -2.0501639
C           3.7249685     0.1781734    -2.6566181
N           2.4796406    -0.3119419    -2.3402157
H           1.9067475    -0.2516529    -3.1753009
C           2.2587966    -1.5406476    -1.5743958
H           2.7000864    -2.4225811    -2.0593165
H           1.1797041    -1.6928540    -1.4864518
H           2.6621205    -1.4282883    -0.5690536
O           4.0105611     0.6057840    -3.7666847
C           4.7369562     1.1905570     2.2978830
H           4.7627890     1.4631716     3.3466097
C           5.8870191     1.1744559     1.5063768
H           6.8596721     1.4352039     1.9212307
N           5.8715533     0.8487485     0.2158050
C           4.6664081     0.5246094    -0.2985456
N           3.5028576     0.4916253     0.3629091
C           3.5570002     0.8305235     1.6557194
H           2.6088506     0.8073849     2.1908052
19
063_C6H8N4O_0-2-3-5 (-30,) energy =    -527.7021608
N           4.7243047     0.2240229    -1.6961940
H           5.6225716     0.4850857    -2.0867105
C           3.7237428     0.2317607    -2.7018307
N           2.5391902    -0.3838440    -2.4198954
H           1.9061033    -0.3013393    -3.2047284
C           2.3298395    -1.5241968    -1.5352552
H           1.8543792    -2.3353292    -2.0981513
H           1.7061231    -1.2598217    -0.6772388
H           3.2895425    -1.8852480    -1.1612139
O           3.9622670     0.7676473    -3.7756924
C           4.6331774     1.1550444     2.2611805
H           4.6269085     1.4094883     3.3147843
C           5.8111723     1.1196725     1.5132478
H           6.7740491     1.3482026     1.9681046
N           5.8362041     0.8129598     0.2176859
C           4.6430724     0.5310573    -0.3453374
N           3.4522096     0.5298361     0.2684135
C           3.4675563     0.8448342     1.5674998
H           2.4991356     0.8479911     2.0658235
19
063_C6H8N4O_0-2-3-5 (-15,) energy =    -527.7024161
N           4.7261546     0.2149152    -1.7057676
H           5.6172396     0.4961020    -2.0996777
C           3.7034664     0.2836026    -2.6956258
N           2.5808558    -0.4533002    -2.4833435
H           1.9051892    -0.3288799    -3.2246255
C           2.3661079    -1.5383795    -1.5401360
H           1.8490712    -2.3565197    -2.0530070
H           1.7796089    -1.2188397    -0.6742098
H           3.3286588    -1.9118835    -1.1848192
O           3.8939082     0.9356830    -3.7130447
C           4.6217263     1.1569474     2.2487587
H           4.6102526     1.4126670     3.3019931
C           5.8073616     1.0837678     1.5157682
H           6.7710561     1.2831290     1.9825273
N           5.8396470     0.7744473     0.2208867
C           4.6457548     0.5304123    -0.3571110
N           3.4463609     0.5731039     0.2404165
C           3.4552729     0.8864364     1.5399098
H           2.4809676     0.9243311     2.0251694
19
063_C6H8N4O_0-2-3-5 (0,) energy =    -527.7019390
N           4.7276377     0.1904615    -1.7073122
H           5.6115963     0.4848502    -2.1084819
C           3.6809849     0.3021461    -2.6759461
N           2.6231497    -0.5391843    -2.5360938
H           1.9025912    -0.3603406    -3.2220760
C           2.3800746    -1.5604833    -1.5331364
H           1.8477798    -2.3933952    -2.0042257
H           1.7988555    -1.1820327    -0.6871296
H           3.3347254    -1.9338817    -1.1572065
O           3.8183094     1.0480983    -3.6347017
C           4.6178356     1.1591879     2.2399137
H           4.6031435     1.4201183     3.2918134
C           5.8076953     1.0565197     1.5173495
H           6.7712246     1.2375376     1.9918776
N           5.8448841     0.7398853     0.2242245
C           4.6511062     0.5202157    -0.3624723
N           3.4465814     0.5969160     0.2234522
C           3.4512072     0.9140589     1.5219161
H           2.4738541     0.9785695     1.9981407
19
063_C6H8N4O_0-2-3-5 (15,) energy =    -527.7024140
N           4.7579172     0.1690254    -1.7412470
H           5.6107806     0.5385383    -2.1466000
C           4.4434285    -1.0945350    -2.3195090
N           3.1541690    -1.5170462    -2.2319157
H           3.0305623    -2.4308727    -2.6456827
C           1.9638543    -0.7552114    -1.8923412
H           1.6183758    -0.9653240    -0.8761738
H           1.1707787    -0.9977650    -2.6080374
H           2.1779438     0.3125542    -1.9687138
O           5.3111043    -1.7135231    -2.9199878
C           4.3844752     1.4734702     2.0923367
H           4.2984189     1.8308951     3.1119814
C           5.2381598     2.0730991     1.1649672
H           5.8529044     2.9297518     1.4379940
N           5.3587242     1.6450164    -0.0903015
C           4.5990801     0.5824918    -0.4265564
N           3.7487539    -0.0757259     0.3742027
C           3.6551933     0.3840355     1.6259170
H           2.9669306    -0.1522235     2.2777695
19
063_C6H8N4O_0-2-3-5 (30,) energy =    -527.7021608
N           4.7708731     0.1657233    -1.7262485
H           5.6135237     0.5519613    -2.1364929
C           4.4313847    -1.0619542    -2.3507841
N           3.1769905    -1.5543619    -2.1371221
H           3.0591350    -2.4347531    -2.6214673
C           1.9631808    -0.7872999    -1.8819703
H           1.5601326    -0.9896145    -0.8861142
H           1.2119134    -1.0377017    -2.6394310
H           2.1768308     0.2806778    -1.9531887
O           5.2580670    -1.6176510    -3.0614489
C           4.3851856     1.4874018     2.1000199
H           4.2983517     1.8499970     3.1177853
C           5.2678608     2.0581512     1.1816213
H           5.9052894     2.8964620     1.4594198
N           5.3897752     1.6226762    -0.0708476
C           4.6007184     0.5835927    -0.4139547
N           3.7176652    -0.0418391     0.3759174
C           3.6255529     0.4222467     1.6262071
H           2.9107674    -0.0886149     2.2698507
19
063_C6H8N4O_0-2-3-5 (45,) energy =    -527.7012444
N           4.7386138     0.1896550    -1.6924345
H           5.5631543     0.5873006    -2.1279882
C           4.3801122    -1.0158025    -2.3382002
N           3.1741448    -1.5960068    -2.0217026
H           3.0891949    -2.4434386    -2.5729299
C           1.9179126    -0.8518982    -1.9070169
H           1.1260699    -1.5645213    -1.6610596
H           1.6493120    -0.3354500    -2.8391256
H           1.9853806    -0.1343966    -1.0905321
O           5.1634361    -1.5028058    -3.1418751
C           4.4652646     1.5671281     2.1246846
H           4.4128223     1.9436552     3.1397171
C           5.3568107     2.0877937     1.1847700
H           6.0347806     2.9004875     1.4417387
N           5.4385920     1.6324160    -0.0633659
C           4.5978549     0.6257974    -0.3825494
N           3.6950963     0.0575761     0.4265316
C           3.6461043     0.5374380     1.6741190
H           2.9142963     0.0709028     2.3318743
19
063_C6H8N4O_0-2-3-5 (60,) energy =    -527.6994493
N           4.7644933     0.1958781    -1.6760045
H           5.5785838     0.6041895    -2.1205147
C           4.3358658    -0.9464328    -2.3756280
N           3.1920059    -1.5969708    -1.9420043
H           3.1296920    -2.4446628    -2.4995568
C           1.8946843    -0.9083040    -1.8939392
H           1.1433680    -1.6269810    -1.5556484
H           1.5912660    -0.5149326    -2.8743484
H           1.9340950    -0.1000999    -1.1645717
O           5.0305522    -1.3582837    -3.2942725
C           4.4705852     1.5806804     2.1353967
H           4.4142756     1.9582772     3.1498561
C           5.4196757     2.0441823     1.2224486
H           6.1408983     2.8116082     1.4998782
N           5.5061635     1.5857249    -0.0242739
C           4.6107858     0.6364030    -0.3695597
N           3.6466708     0.1320566     0.4093323
C           3.5961167     0.6104832     1.6572209
H           2.8142961     0.1953612     2.2914485
19
063_C6H8N4O_0-2-3-5 (75,) energy =    -527.6964253
N           4.8016003     0.2096128    -1.6667722
H           5.6042305     0.6292098    -2.1209114
C           4.2996657    -0.8677957    -2.4065565
N           3.2323061    -1.5963391    -1.8721497
H           3.2178888    -2.4508682    -2.4263454
C           1.8852773    -0.9970520    -1.9019753
H           1.1779526    -1.7373850    -1.5184821
H           1.5768295    -0.7025380    -2.9150537
H           1.8574014    -0.1324617    -1.2385048
O           4.8905567    -1.1971755    -3.4249013
C           4.4758059     1.5847952     2.1438738
H           4.4119791     1.9572218     3.1598274
C           5.4884115     1.9836020     1.2697834
H           6.2534409     2.6939357     1.5797887
N           5.5850625     1.5285173     0.0222820
C           4.6343642     0.6518371    -0.3626540
N           3.6022599     0.2230546     0.3724292
C           3.5447446     0.6916701     1.6235200
H           2.7082660     0.3370331     2.2237918
19
063_C6H8N4O_0-2-3-5 (90,) energy =    -527.6937587
N           4.8694945     0.1308502    -1.6749190
H           5.6432351     0.5977816    -2.1344035
C           4.3005898    -0.8930398    -2.4677304
N           3.1720501    -1.5742709    -1.9700528
H           3.2035362    -1.5404707    -0.9496977
C           1.9014086    -0.9332056    -2.3664538
H           1.7838802     0.0829481    -1.9608940
H           1.0760521    -1.5531732    -2.0062492
H           1.8457257    -0.8887449    -3.4571796
O           4.7439743    -1.0503961    -3.5875946
C           4.4133031     1.3981146     2.1614009
H           4.3026642     1.7498050     3.1804899
C           5.3170496     1.9784402     1.2686595
H           5.9485000     2.8121623     1.5716725
N           5.4658437     1.5598944     0.0134882
C           4.6866343     0.5263861    -0.3619477
N           3.7945874    -0.1146261     0.4099911
C           3.6693288     0.3345310     1.6634663
H           2.9447199    -0.1887765     2.2845191
19
063_C6H8N4O_0-2-3-5 (105,) energy =    -527.6995024
N           4.8670485     0.1638040    -1.6239109
H           5.6497534     0.6102717    -2.0879362
C           4.2449537    -0.8161311    -2.4338089
N           3.1391929    -1.4927289    -1.9147096
H           3.1104317    -1.3655158    -0.9025011
C           1.8474123    -1.0629295    -2.4766099
H           1.5860206    -0.0305531    -2.2001821
H           1.0653754    -1.7345103    -2.1120527
H           1.8864873    -1.1387182    -3.5655778
O           4.6387071    -0.9329382    -3.5795747
C           4.4812354     1.4076218     2.2263174
H           4.3903421     1.7533151     3.2493647
C           5.4106665     1.9537075     1.3379287
H           6.0820513     2.7529103     1.6481614
N           5.5375390     1.5425172     0.0782670
C           4.7090028     0.5514230    -0.3070921
N           3.7868495    -0.0525865     0.4599910
C           3.6848706     0.3876756     1.7186413
H           2.9357924    -0.1060314     2.3348622
19
063_C6H8N4O_0-2-3-5 (120,) energy =    -527.7056528
N           4.8575253     0.2149131    -1.5984000
H           5.6523262     0.6388823    -2.0622942
C           4.1845020    -0.7183647    -2.4243323
N           3.0958456    -1.3838150    -1.8883153
H           3.0048259    -1.1924505    -0.8908169
C           1.8155234    -1.1900542    -2.5796496
H           1.4197984    -0.1722136    -2.4495364
H           1.0877465    -1.9054794    -2.1871345
H           1.9513399    -1.3821719    -3.6455886
O           4.5440403    -0.8069091    -3.5861469
C           4.5442695     1.4108174     2.2714387
H           4.4742041     1.7438320     3.3002840
C           5.5043040     1.9174323     1.3918164
H           6.2206949     2.6712220     1.7149527
N           5.6081040     1.5213681     0.1255938
C           4.7234284     0.5863655    -0.2762701
N           3.7652728     0.0259299     0.4806684
C           3.6886852     0.4491958     1.7468787
H           2.9106625    -0.0091666     2.3545086
19
063_C6H8N4O_0-2-3-5 (135,) energy =    -527.7113232
N           4.8499175     0.2510577    -1.5735239
H           5.6572566     0.6477160    -2.0390747
C           4.1183611    -0.6229196    -2.4158562
N           3.0386576    -1.2688898    -1.8642359
H           2.9001088    -1.0339303    -0.8823354
C           1.8009605    -1.3068044    -2.6427877
H           1.2696719    -0.3445591    -2.6214221
H           1.1441143    -2.0829456    -2.2401135
H           2.0410248    -1.5529956    -3.6781931
O           4.4526524    -0.6946212    -3.5882880
C           4.5989330     1.4067826     2.3120523
H           4.5462684     1.7277256     3.3457445
C           5.5951724     1.8612634     1.4439661
H           6.3584979     2.5605757     1.7819379
N           5.6789379     1.4788677     0.1723689
C           4.7354944     0.6113052    -0.2483685
N           3.7361885     0.1071031     0.4959827
C           3.6822935     0.5147273     1.7685080
H           2.8709122     0.1021287     2.3652362
19
063_C6H8N4O_0-2-3-5 (150,) energy =    -527.7156393
N           4.8382485     0.2830474    -1.5594399
H           5.6543636     0.6558569    -2.0285160
C           4.0500040    -0.5242302    -2.4185011
N           2.9680996    -1.1396190    -1.8576631
H           2.7945330    -0.8870619    -0.8867572
C           1.7998113    -1.4058543    -2.6869571
H           1.1572848    -0.5200931    -2.7905399
H           1.2148854    -2.2170264    -2.2438807
H           2.1355516    -1.7114101    -3.6786927
O           4.3709945    -0.5910385    -3.5965509
C           4.6392573     1.3939639     2.3421258
H           4.6004904     1.7008733     3.3806801
C           5.6653378     1.8006186     1.4849372
H           6.4676265     2.4471962     1.8374984
N           5.7321302     1.4342361     0.2078824
C           4.7397044     0.6322887    -0.2317855
N           3.7066256     0.1797156     0.5009388
C           3.6723189     0.5695357     1.7798043
H           2.8334369     0.1993188     2.3662491
19
063_C6H8N4O_0-2-3-5 (165,) energy =    -527.7180735
N           4.8271914     0.3130320    -1.5534802
H           5.6520312     0.6652317    -2.0226127
C           3.9897253    -0.4270424    -2.4278345
N           2.8884698    -0.9932974    -1.8696356
H           2.6999556    -0.7535351    -0.8995265
C           1.8122540    -1.4849160    -2.7120777
H           1.0750346    -0.7023554    -2.9394600
H           1.3029384    -2.3133210    -2.2105607
H           2.2388690    -1.8418249    -3.6503237
O           4.3116018    -0.5045240    -3.6062046
C           4.6667249     1.3790562     2.3617535
H           4.6387856     1.6722373     3.4046123
C           5.7173657     1.7428913     1.5149252
H           6.5510277     2.3405160     1.8809320
N           5.7710757     1.3927696     0.2329400
C           4.7394875     0.6513276    -0.2236240
N           3.6787464     0.2450672     0.4978907
C           3.6595618     0.6171609     1.7824286
H           2.7984936     0.2850357     2.3595042
19
063_C6H8N4O_0-2-3-5 (180,) energy =    -527.7187173
N           4.8627164     0.2326131    -1.6154254
H           5.7165879     0.5386405    -2.0642693
C           4.0379102    -0.5200571    -2.4920827
N           2.8714721    -0.9715339    -1.9708296
H           2.6730979    -0.7377693    -1.0018952
C           1.9408616    -1.7519965    -2.7623970
H           0.9795634    -1.2341050    -2.8684259
H           1.7613577    -2.7319965    -2.3038935
H           2.3765954    -1.8963690    -3.7516565
O           4.4333693    -0.7052413    -3.6363190
C           4.5938600     1.4410534     2.2517862
H           4.5377543     1.7714482     3.2823067
C           5.6845753     1.7445273     1.4321137
H           6.5226191     2.3297991     1.8080053
N           5.7730880     1.3490178     0.1655071
C           4.7358769     0.6231830    -0.3037954
N           3.6383329     0.2728649     0.3921272
C           3.5854241     0.6889074     1.6622164
H           2.6949894     0.4017954     2.2185268
