19
063_C6H8N4O_15-0-2-3 (-165,) energy =    -527.7029882
N           4.3938257    -0.2684200    -0.5879855
H           5.2785177    -0.6412672    -0.9082098
C           3.2835122    -0.3701619    -1.4550720
N           3.3935016    -1.4792176    -2.2716487
H           3.9229648    -2.2610006    -1.9089503
C           2.3150206    -1.7926135    -3.1964073
H           1.4740071    -2.3031339    -2.7077747
H           2.7007213    -2.4257600    -4.0005781
H           1.9434586    -0.8588191    -3.6202029
O           2.3741931     0.4328787    -1.5170976
C           4.8883441     1.9787746     2.7557895
H           5.0354689     2.5762348     3.6483852
C           5.9554369     1.4170247     2.0568109
H           6.9833982     1.5544947     2.3894687
N           5.7907826     0.6900329     0.9506819
C           4.5165245     0.5168989     0.5475347
N           3.4131670     0.9758050     1.1494100
C           3.6196699     1.7122231     2.2431800
H           2.7247601     2.0943392     2.7325216
19
063_C6H8N4O_15-0-2-3 (-150,) energy =    -527.7019995
N           4.4572930    -0.0948407    -0.7246383
H           5.3329042    -0.5025182    -1.0252482
C           3.3151703    -0.2766282    -1.5393117
N           3.3760984    -1.4698397    -2.2271551
H           3.9177412    -2.2153106    -1.8116191
C           2.2832495    -1.8506206    -3.1076536
H           1.4320872    -2.2786429    -2.5611944
H           2.6439210    -2.5800566    -3.8384935
H           1.9349875    -0.9587320    -3.6304454
O           2.4175698     0.5331287    -1.6586484
C           4.8533064     1.8905899     2.7909667
H           4.9737831     2.4207070     3.7288904
C           5.9394687     1.3680395     2.0904639
H           6.9559913     1.4699784     2.4681609
N           5.8087926     0.7221473     0.9310399
C           4.5478010     0.5941779     0.4717704
N           3.4276445     1.0243214     1.0648902
C           3.6014652     1.6757882     2.2165915
H           2.6930144     2.0319193     2.7005945
19
063_C6H8N4O_15-0-2-3 (-135,) energy =    -527.7003462
N           4.5204813     0.0818167    -0.8781023
H           5.3840672    -0.3649846    -1.1580187
C           3.3541600    -0.1677699    -1.6495316
N           3.3653854    -1.4325453    -2.1906414
H           3.9139532    -2.1370994    -1.7177078
C           2.2598803    -1.8819236    -3.0211845
H           1.4166700    -2.2586841    -2.4271134
H           2.6058568    -2.6718114    -3.6941925
H           1.9071076    -1.0341355    -3.6101454
O           2.4788007     0.6507145    -1.8450773
C           4.8253433     1.8022671     2.7833628
H           4.9210672     2.2651005     3.7589336
C           5.9275931     1.3105964     2.0854033
H           6.9316739     1.3696752     2.5034948
N           5.8287835     0.7450214     0.8816753
C           4.5829973     0.6708031     0.3715588
N           3.4489051     1.0802902     0.9544719
C           3.5911301     1.6471098     2.1542126
H           2.6714351     1.9837492     2.6309546
19
063_C6H8N4O_15-0-2-3 (-120,) energy =    -527.6992008
N           4.8588013    -0.2530987    -0.8106913
H           5.7445488    -0.0656243    -1.2725312
C           3.7270134    -0.2102745    -1.7348291
N           3.2318047    -1.4534931    -1.9518447
H           3.5623371    -2.1826395    -1.3363858
C           2.0606613    -1.6851957    -2.7783750
H           1.1394246    -1.7131631    -2.1824787
H           2.1663232    -2.6316550    -3.3170937
H           1.9859096    -0.8660621    -3.4949683
O           3.3498509     0.8075487    -2.2818060
C           4.6203385     1.7295901     2.7251618
H           4.5601090     2.2503515     3.6739688
C           5.8230078     1.5844561     2.0354180
H           6.7520079     1.9911256     2.4328800
N           5.9147056     0.9577833     0.8606090
C           4.7648071     0.4548975     0.3782818
N           3.5520124     0.5186875     0.9529472
C           3.4986814     1.1664633     2.1176985
H           2.5159804     1.2306814     2.5831224
19
063_C6H8N4O_15-0-2-3 (-105,) energy =    -527.7006958
N           4.9727906    -0.2162321    -0.8877008
H           5.8270590     0.1011800    -1.3391553
C           3.8605117    -0.2085691    -1.8335045
N           3.2251567    -1.4046814    -1.8624742
H           3.4667453    -2.0570320    -1.1301743
C           2.0101641    -1.6124380    -2.6300085
H           1.1102575    -1.4404001    -2.0255796
H           1.9880980    -2.6340214    -3.0210398
H           2.0127472    -0.9066548    -3.4617235
O           3.6303026     0.7363037    -2.5644867
C           4.5380134     1.6450804     2.7001705
H           4.4272870     2.1335157     3.6614977
C           5.7559755     1.6125036     2.0221575
H           6.6458664     2.0798468     2.4416583
N           5.9095826     1.0254027     0.8337244
C           4.8084170     0.4482032     0.3224884
N           3.5868355     0.4063875     0.8810949
C           3.4702260     1.0155999     2.0627027
H           2.4796729     0.9933316     2.5151614
19
063_C6H8N4O_15-0-2-3 (-90,) energy =    -527.7034851
N           5.0463545    -0.1980116    -0.9687927
H           5.8713766     0.2027997    -1.4083591
C           3.9711124    -0.2562921    -1.9427209
N           3.2043284    -1.3677105    -1.8036690
H           3.2930254    -1.8523735    -0.9205992
C           1.9747130    -1.5332065    -2.5608355
H           1.1093845    -1.0975795    -2.0441393
H           1.7900708    -2.5978119    -2.7309557
H           2.0985191    -1.0306732    -3.5208817
O           3.8927524     0.5503430    -2.8518613
C           4.4977173     1.5574821     2.6594262
H           4.3590711     2.0201247     3.6297890
C           5.6945425     1.6660693     1.9517223
H           6.5387560     2.2228253     2.3560249
N           5.8809240     1.1128432     0.7521173
C           4.8377228     0.4234988     0.2584303
N           3.6447507     0.2364507     0.8497922
C           3.4912254     0.8179881     2.0417784
H           2.5226250     0.6779238     2.5197854
19
063_C6H8N4O_15-0-2-3 (-75,) energy =    -527.7076541
N           5.1005120    -0.1762948    -0.9998622
H           5.9012857     0.2736709    -1.4362306
C           4.0625795    -0.3162146    -1.9937723
N           3.1752283    -1.3082081    -1.7128174
H           3.1231133    -1.5685281    -0.7344586
C           1.9800659    -1.4762329    -2.5246391
H           1.1564764    -0.8270715    -2.1977715
H           1.6523889    -2.5184109    -2.4737907
H           2.2305267    -1.2274180    -3.5565545
O           4.1231122     0.3069462    -3.0400227
C           4.4859458     1.4811549     2.6648023
H           4.3313711     1.9197684     3.6438099
C           5.6400514     1.7228865     1.9191885
H           6.4329465     2.3640086     2.3015528
N           5.8441283     1.2016310     0.7086113
C           4.8664355     0.4061309     0.2409971
N           3.7252548     0.0810062     0.8752917
C           3.5474465     0.6369182     2.0767059
H           2.6192223     0.3844335     2.5870678
19
063_C6H8N4O_15-0-2-3 (-60,) energy =    -527.7120067
N           5.1192766    -0.0907518    -1.0171889
H           5.9095951     0.3768734    -1.4516969
C           4.1205155    -0.3447751    -2.0174955
N           3.1529032    -1.2217731    -1.6362733
H           3.0341787    -1.3168862    -0.6320641
C           2.0039744    -1.4603120    -2.4950537
H           1.2015816    -0.7265216    -2.3373946
H           1.6098711    -2.4621088    -2.3014297
H           2.3321331    -1.3971587    -3.5332536
O           4.2719764     0.1004187    -3.1440294
C           4.4933445     1.4327831     2.7024834
H           4.3385992     1.8377130     3.6957789
C           5.6220800     1.7447632     1.9428472
H           6.3933784     2.4098875     2.3283802
N           5.8264984     1.2648574     0.7164635
C           4.8761312     0.4389124     0.2413177
N           3.7623087     0.0494499     0.8888972
C           3.5822585     0.5645910     2.1086829
H           2.6755470     0.2572583     2.6271480
19
063_C6H8N4O_15-0-2-3 (-45,) energy =    -527.7153197
N           5.0940388     0.0206736    -1.0395879
H           5.8871205     0.4825894    -1.4716178
C           4.1415390    -0.3522003    -2.0373566
N           3.1156631    -1.1252881    -1.5942937
H           2.9583330    -1.1152798    -0.5900861
C           2.0201940    -1.4695783    -2.4842473
H           1.2186694    -0.7180239    -2.4738430
H           1.6012011    -2.4354890    -2.1870145
H           2.4111322    -1.5438587    -3.4997584
O           4.3653274    -0.0636330    -3.2038730
C           4.5118998     1.3871145     2.7449688
H           4.3705284     1.7529784     3.7552169
C           5.6282184     1.7312824     1.9793352
H           6.4023798     2.3846288     2.3790453
N           5.8163199     1.2981974     0.7344303
C           4.8605358     0.4868582     0.2403706
N           3.7563800     0.0741077     0.8896986
C           3.5945460     0.5408996     2.1319308
H           2.6955532     0.2119385     2.6501915
19
063_C6H8N4O_15-0-2-3 (-30,) energy =    -527.7173746
N           5.0655619     0.1257975    -1.0642281
H           5.8749278     0.5620771    -1.4897807
C           4.1643747    -0.3587640    -2.0545683
N           3.0829093    -1.0314065    -1.5870321
H           2.8966760    -0.9549633    -0.5906300
C           2.0485015    -1.4927475    -2.4944627
H           1.2390098    -0.7591313    -2.6120383
H           1.6226413    -2.4281454    -2.1186801
H           2.4994189    -1.6690137    -3.4718964
O           4.4600275    -0.2118761    -3.2327782
C           4.5403569     1.3376545     2.7781480
H           4.4161664     1.6650382     3.8036870
C           5.6505843     1.7012751     2.0116003
H           6.4361680     2.3315706     2.4259092
N           5.8196747     1.3142403     0.7498775
C           4.8493022     0.5312794     0.2349963
N           3.7467946     0.1095209     0.8815118
C           3.6062643     0.5270105     2.1441493
H           2.7095094     0.1877650     2.6595338
19
063_C6H8N4O_15-0-2-3 (-15,) energy =    -527.7184102
N           4.9900591     0.2206705    -1.1457053
H           5.8195641     0.6117688    -1.5743782
C           4.1311829    -0.3778737    -2.1062079
N           3.0080031    -0.9595659    -1.6191204
H           2.8060570    -0.8183855    -0.6330419
C           2.0218427    -1.5436791    -2.5078765
H           1.1867533    -0.8580125    -2.7060420
H           1.6228122    -2.4630980    -2.0673130
H           2.5092446    -1.7794351    -3.4547681
O           4.4798431    -0.3650725    -3.2797704
C           4.5815634     1.3048612     2.7465863
H           4.4888017     1.6003999     3.7850087
C           5.6832336     1.6667450     1.9664094
H           6.4928103     2.2642890     2.3831188
N           5.8156939     1.3163904     0.6902200
C           4.8141713     0.5748325     0.1714779
N           3.7126278     0.1655037     0.8277783
C           3.6124136     0.5414108     2.1074406
H           2.7175531     0.2095938     2.6308417
19
063_C6H8N4O_15-0-2-3 (0,) energy =    -527.7187172
N           4.8767511     0.2601305    -1.6141267
H           5.7313335     0.5731277    -2.0567629
C           4.0594247    -0.4898595    -2.5001100
N           2.8926895    -0.9503907    -1.9876002
H           2.6889572    -0.7247610    -1.0178446
C           1.9678145    -1.7267493    -2.7898726
H           1.0062978    -1.2096188    -2.8977319
H           1.7871989    -2.7102189    -2.3393058
H           2.4094236    -1.8634480    -3.7775985
O           4.4607582    -0.6642924    -3.6439919
C           4.5879296     1.4331445     2.2625438
H           4.5265267     1.7540877     3.2957450
C           5.6805829     1.7481709     1.4498305
H           6.5146630     2.3334602     1.8344061
N           5.7756870     1.3642716     0.1801381
C           4.7432091     0.6385171    -0.2996164
N           3.6442497     0.2779492     0.3888216
C           3.5847098     0.6824266     1.6623658
H           2.6931803     0.3870362     2.2125598
19
063_C6H8N4O_15-0-2-3 (15,) energy =    -527.7183944
N           4.8033353     0.3981575    -1.4835964
H           5.6909497     0.6137255    -1.9200567
C           3.9976489    -0.4356271    -2.3045391
N           2.7712345    -0.7458874    -1.8188609
H           2.5693839    -0.4733003    -0.8608806
C           1.8945155    -1.6470287    -2.5427712
H           0.8535679    -1.3940957    -2.3211078
H           2.0661233    -2.6990896    -2.2767214
H           2.0742042    -1.5308879    -3.6128348
O           4.4383274    -0.7754911    -3.3949653
C           4.6523661     1.5472173     2.4084274
H           4.6271238     1.8622255     3.4449589
C           5.7509839     1.7991167     1.5820740
H           6.6264951     2.3268424     1.9577473
N           5.8033688     1.4191819     0.3085455
C           4.7194800     0.7659881    -0.1611915
N           3.6074633     0.4749472     0.5391835
C           3.5938379     0.8683083     1.8174111
H           2.6929966     0.6266904     2.3786014
19
063_C6H8N4O_15-0-2-3 (30,) energy =    -527.7173739
N           4.7489415     0.5149556    -1.5096076
H           5.6562540     0.6917904    -1.9244196
C           4.0026419    -0.4166495    -2.2860994
N           2.7398196    -0.6638727    -1.8570586
H           2.5059249    -0.3423975    -0.9215617
C           1.9213289    -1.6642800    -2.5175506
H           0.8656392    -1.4135095    -2.3796577
H           2.0982395    -2.6759291    -2.1268302
H           2.1560556    -1.6626333    -3.5831035
O           4.5061994    -0.8591245    -3.3096576
C           4.6715112     1.4940680     2.4329012
H           4.6634956     1.7654606     3.4820033
C           5.7675558     1.7550853     1.6064895
H           6.6586147     2.2463753     1.9947125
N           5.7993821     1.4259590     0.3176865
C           4.6960624     0.8194286    -0.1666017
N           3.5817036     0.5302439     0.5305527
C           3.5906120     0.8668256     1.8247245
H           2.6891183     0.6245859     2.3846427
19
063_C6H8N4O_15-0-2-3 (45,) energy =    -527.7153195
N           4.6812945     0.5940424    -1.5440855
H           5.5991984     0.7447333    -1.9487538
C           3.9910237    -0.4302285    -2.2624554
N           2.6887848    -0.6021262    -1.9151083
H           2.4202127    -0.2253201    -1.0100334
C           1.9204558    -1.6930492    -2.4903854
H           0.8561021    -1.4477726    -2.4365914
H           2.0910877    -2.6478476    -1.9739605
H           2.2100924    -1.8117818    -3.5355045
O           4.5582117    -0.9854066    -3.1919980
C           4.6995097     1.4319288     2.4341112
H           4.7137555     1.6654080     3.4922817
C           5.7833117     1.7081327     1.5975060
H           6.6873349     2.1743456     1.9865373
N           5.7879127     1.4225297     0.2970758
C           4.6682949     0.8487664    -0.1857941
N           3.5600365     0.5545074     0.5187469
C           3.5979162     0.8426358     1.8236565
H           2.7029539     0.5946440     2.3915847
19
063_C6H8N4O_15-0-2-3 (60,) energy =    -527.7120111
N           4.6045895     0.6715012    -1.5813050
H           5.5245950     0.8187009    -1.9857979
C           3.9809627    -0.4431936    -2.2363402
N           2.6457173    -0.5537666    -2.0010509
H           2.3201622    -0.0994809    -1.1528571
C           1.9162518    -1.7129486    -2.4897881
H           0.8540754    -1.4626819    -2.5587701
H           2.0333890    -2.5913679    -1.8402293
H           2.2914331    -1.9663237    -3.4822770
O           4.6179703    -1.1013473    -3.0435492
C           4.7328238     1.3742300     2.4230434
H           4.7723074     1.5713208     3.4880288
C           5.7951979     1.6813000     1.5711694
H           6.7074169     2.1365410     1.9538910
N           5.7691651     1.4381555     0.2611771
C           4.6392439     0.8801332    -0.2110374
N           3.5458913     0.5632761     0.5068121
C           3.6158881     0.8050716     1.8191633
H           2.7348404     0.5384420     2.4004993
19
063_C6H8N4O_15-0-2-3 (75,) energy =    -527.7076568
N           4.5119880     0.6967527    -1.6107658
H           5.4233893     0.8616841    -2.0305369
C           3.9519488    -0.4974418    -2.1979784
N           2.5951417    -0.5542253    -2.1194555
H           2.1876077     0.0132886    -1.3849528
C           1.8872397    -1.7611673    -2.5172203
H           0.8631886    -1.5013168    -2.7994348
H           1.8570367    -2.5132443    -1.7171831
H           2.4000987    -2.1909208    -3.3785516
O           4.6581923    -1.2610508    -2.8341379
C           4.7711289     1.3130606     2.4028507
H           4.8423970     1.4864355     3.4703745
C           5.7896747     1.6798282     1.5228690
H           6.6978320     2.1603937     1.8837154
N           5.7253170     1.4651696     0.2080868
C           4.6006347     0.8766644    -0.2348498
N           3.5450486     0.5019058     0.5105669
C           3.6540039     0.7156726     1.8245377
H           2.8056076     0.4025942     2.4311824
19
063_C6H8N4O_15-0-2-3 (90,) energy =    -527.7034845
N           4.4557452     0.6853401    -1.5774673
H           5.3442631     0.8896546    -2.0283766
C           3.9342515    -0.5642561    -2.1014525
N           2.5830862    -0.5496051    -2.2308038
H           2.1026203     0.1767252    -1.7167973
C           1.8472618    -1.7564246    -2.5698714
H           0.9319384    -1.4878970    -3.1049815
H           1.5832641    -2.3436063    -1.6804295
H           2.4777775    -2.3669546    -3.2174121
O           4.6751756    -1.4448306    -2.5001166
C           4.8385470     1.2835747     2.4278658
H           4.9403134     1.4525491     3.4936818
C           5.7728267     1.7619400     1.5095463
H           6.6430953     2.3291447     1.8367035
N           5.6704472     1.5554244     0.1954917
C           4.5927396     0.8580627    -0.2037278
N           3.6205925     0.3604987     0.5806785
C           3.7662864     0.5744765     1.8904838
H           2.9865060     0.1640459     2.5306252
19
063_C6H8N4O_15-0-2-3 (105,) energy =    -527.7006917
N           4.3886855     0.6830584    -1.5153843
H           5.2333100     0.9387202    -2.0206554
C           3.8879135    -0.6090526    -1.9732035
N           2.5811957    -0.5407947    -2.3250009
H           2.0902325     0.2996702    -2.0550880
C           1.8214336    -1.7243794    -2.6871031
H           1.0518132    -1.4589289    -3.4176475
H           1.3432830    -2.1877602    -1.8143998
H           2.5090821    -2.4452685    -3.1314750
O           4.6094026    -1.5789172    -2.1111168
C           4.9227238     1.3057477     2.4658167
H           5.0614735     1.4815416     3.5263789
C           5.7570814     1.8771211     1.5057530
H           6.5826924     2.5269923     1.7927546
N           5.6089790     1.6648304     0.1967523
C           4.5869576     0.8639408    -0.1515018
N           3.7146650     0.2640104     0.6762313
C           3.9032447     0.4900745     1.9779276
H           3.2049135    -0.0019214     2.6537208
19
063_C6H8N4O_15-0-2-3 (120,) energy =    -527.6991990
N           4.2715765     0.6510649    -1.4099132
H           5.0350092     0.9870183    -1.9906722
C           3.7851997    -0.6615977    -1.8307426
N           2.5597196    -0.5638319    -2.4021418
H           2.0830064     0.3198773    -2.2949351
C           1.8196721    -1.7317076    -2.8459335
H           1.2319236    -1.4834873    -3.7347062
H           1.1469155    -2.1100184    -2.0656228
H           2.5387286    -2.5140206    -3.0931098
O           4.4444471    -1.6786950    -1.7396692
C           5.0342347     1.3274809     2.5208180
H           5.2324312     1.5169325     3.5695689
C           5.7721170     1.9355288     1.5064049
H           6.5784577     2.6306389     1.7366959
N           5.5511747     1.7052812     0.2104608
C           4.5517220     0.8494769    -0.0661214
N           3.7651419     0.2139634     0.8185532
C           4.0274655     0.4577496     2.1034132
H           3.3998803    -0.0630341     2.8254728
19
063_C6H8N4O_15-0-2-3 (135,) energy =    -527.7003457
N           4.3392721     0.2163391    -1.2182858
H           4.5640327     0.9180666    -1.9117620
C           3.5791678    -0.9125181    -1.6256796
N           2.6994593    -0.5944501    -2.6343201
H           2.3977386     0.3672077    -2.7061773
C           1.8319181    -1.6171784    -3.1957341
H           1.5469732    -1.3362012    -4.2137660
H           0.9242470    -1.7705875    -2.5970175
H           2.3837031    -2.5578948    -3.2214895
O           3.7220585    -2.0294582    -1.1714270
C           5.2043894     1.4740060     2.5402283
H           5.4472300     1.8179562     3.5391492
C           5.6125390     2.1644211     1.3997988
H           6.1894927     3.0853103     1.4744335
N           5.3292503     1.7517652     0.1636554
C           4.6114964     0.6137165     0.0778843
N           4.1404355    -0.1195231     1.0948251
C           4.4516349     0.3225465     2.3148669
H           4.0729140    -0.2722961     3.1450366
19
063_C6H8N4O_15-0-2-3 (150,) energy =    -527.7019993
N           4.1359705     0.3271122    -1.1450081
H           4.4025805     1.0087461    -1.8432640
C           3.4519422    -0.8372200    -1.5670367
N           2.6834908    -0.5886509    -2.6841783
H           2.3563378     0.3583190    -2.8182191
C           1.8861462    -1.6579435    -3.2633897
H           1.6672754    -1.4215558    -4.3086163
H           0.9424011    -1.8182109    -2.7249227
H           2.4632049    -2.5825242    -3.2162728
O           3.5621593    -1.9286897    -1.0454054
C           5.2893870     1.4582543     2.5763801
H           5.6063031     1.7707296     3.5648952
C           5.6645181     2.1493022     1.4252212
H           6.2899727     3.0393362     1.4802018
N           5.2911452     1.7721120     0.2017397
C           4.5125438     0.6732663     0.1404838
N           4.0642050    -0.0538347     1.1710377
C           4.4692990     0.3487506     2.3771848
H           4.1109125    -0.2428263     3.2185982
19
063_C6H8N4O_15-0-2-3 (165,) energy =    -527.7029884
N           3.9385853     0.4267317    -1.0846313
H           4.2400281     1.0899666    -1.7871188
C           3.3443335    -0.7761143    -1.5262101
N           2.6950382    -0.5936068    -2.7320370
H           2.3422598     0.3348609    -2.9232537
C           1.9658520    -1.7048510    -3.3236089
H           1.8495545    -1.5304377    -4.3970969
H           0.9746177    -1.8482065    -2.8723894
H           2.5433569    -2.6168735    -3.1675877
O           3.4304388    -1.8445960    -0.9547950
C           5.3852414     1.4260467     2.5737580
H           5.7786678     1.7050492     3.5446877
C           5.7177080     2.1217106     1.4125771
H           6.3854063     2.9817284     1.4410708
N           5.2512341     1.7828521     0.2097789
C           4.4197937     0.7226040     0.1811021
N           4.0028981    -0.0010178     1.2264787
C           4.5041560     0.3582184     2.4101089
H           4.1735057    -0.2326473     3.2632675
19
063_C6H8N4O_15-0-2-3 (180,) energy =    -527.7030892
N           4.3176478    -0.4277557    -0.4465027
H           5.2076458    -0.7787512    -0.7791493
C           3.2395691    -0.4701667    -1.3573007
N           3.4248137    -1.4687180    -2.2973336
H           3.9847378    -2.2619120    -2.0119584
C           2.3632469    -1.7410971    -3.2549940
H           1.5416343    -2.3285714    -2.8227351
H           2.7805955    -2.2819228    -4.1090176
H           1.9551207    -0.7892631    -3.5969299
O           2.2959603     0.2946477    -1.3592009
C           4.9222810     2.0500503     2.7149166
H           5.0992705     2.7070363     3.5590044
C           5.9656464     1.4400892     2.0208251
H           7.0042982     1.5981443     2.3077924
N           5.7630500     0.6400057     0.9727390
C           4.4763088     0.4404147     0.6271874
N           3.3941324     0.9399154     1.2334807
C           3.6370817     1.7517570     2.2649069
H           2.7591210     2.1687907     2.7563626
