19
063_C6H8N4O_2-0-15-16 (-165,) energy =    -527.7183182
N           3.7906250     1.4817674    -1.0627273
H           3.6407962     2.4151649    -1.4250445
C           3.3873005     0.4861342    -1.9929039
N           3.4852303    -0.7970250    -1.5687783
H           3.8269165    -0.9501871    -0.6241103
C           3.1111909    -1.9074730    -2.4224861
H           2.2943477    -2.4896981    -1.9785508
H           3.9635871    -2.5758597    -2.5949007
H           2.7792942    -1.5015769    -3.3787450
O           3.0001813     0.8513702    -3.0956686
C           4.6221874     1.4778298     2.9131127
H           4.8458938     1.4941117     3.9733064
C           4.5400415     0.2915642     2.1942012
H           4.6979082    -0.6724794     2.6742924
N           4.2694977     0.2538026     0.8849465
C           4.0670400     1.4412209     0.2845407
N           4.1131034     2.6498028     0.8836334
C           4.3946815     2.6479435     2.1836668
H           4.4347766     3.6246719     2.6637636
19
063_C6H8N4O_2-0-15-16 (-150,) energy =    -527.7170127
N           3.9656275     1.4602094    -1.1056558
H           3.7708497     2.3902239    -1.4578764
C           3.4456412     0.4759287    -1.9948321
N           3.5379433    -0.8074465    -1.5704947
H           3.9500431    -0.9664859    -0.6556751
C           3.0463008    -1.9097916    -2.3736427
H           2.2583697    -2.4621208    -1.8470328
H           3.8555498    -2.6068436    -2.6229945
H           2.6363479    -1.4981424    -3.2966312
O           2.9866144     0.8484305    -3.0664474
C           4.5476955     1.4716378     2.9172485
H           4.7072515     1.4899800     3.9889927
C           4.6042646     0.2925885     2.1831326
H           4.8094877    -0.6627424     2.6627662
N           4.4196119     0.2535824     0.8593634
C           4.1551375     1.4295287     0.2608541
N           4.0544612     2.6260612     0.8743998
C           4.2641288     2.6293981     2.1888257
H           4.1905788     3.5981636     2.6808435
19
063_C6H8N4O_2-0-15-16 (-135,) energy =    -527.7145308
N           4.1350974     1.4446063    -1.1561497
H           3.9208573     2.3762572    -1.4961318
C           3.4953726     0.4865982    -2.0015269
N           3.5628597    -0.7979704    -1.5751311
H           4.0560198    -0.9736926    -0.7052206
C           2.9652320    -1.8836240    -2.3274774
H           2.2074575    -2.4074196    -1.7321113
H           3.7246816    -2.6087616    -2.6443163
H           2.4912938    -1.4582767    -3.2129178
O           2.9751819     0.8749118    -3.0379681
C           4.4890591     1.4580055     2.8984064
H           4.5889495     1.4739766     3.9774923
C           4.6920758     0.2993104     2.1562474
H           4.9546552    -0.6412561     2.6371805
N           4.5883831     0.2663545     0.8238571
C           4.2511052     1.4231903     0.2252490
N           3.9923963     2.5903517     0.8446655
C           4.1348467     2.5947264     2.1695490
H           3.9398664     3.5434078     2.6673627
19
063_C6H8N4O_2-0-15-16 (-120,) energy =    -527.7106921
N           4.3001237     1.4215783    -1.2154282
H           4.0832823     2.3551098    -1.5527003
C           3.5458951     0.5008047    -2.0138787
N           3.5789938    -0.7838265    -1.5812410
H           4.1441578    -0.9826471    -0.7625593
C           2.8796325    -1.8461850    -2.2770460
H           2.1560954    -2.3413957    -1.6181865
H           3.5810222    -2.5991426    -2.6567336
H           2.3487575    -1.4018425    -3.1198949
O           2.9763151     0.9090447    -3.0148007
C           4.4282547     1.4410140     2.8592781
H           4.4673811     1.4540807     3.9424528
C           4.7915537     0.3175509     2.1225325
H           5.1210406    -0.5974088     2.6117450
N           4.7681274     0.2922189     0.7862901
C           4.3478373     1.4159540     0.1784411
N           3.9194376     2.5346375     0.7884735
C           3.9915889     2.5409844     2.1206437
H           3.6640918     3.4554358     2.6127841
19
063_C6H8N4O_2-0-15-16 (-105,) energy =    -527.7056450
N           4.4544539     1.3691467    -1.2854614
H           4.2785626     2.3073566    -1.6364856
C           3.5935349     0.5060930    -2.0410283
N           3.5222172    -0.7649204    -1.5658522
H           4.1605136    -1.0139909    -0.8190875
C           2.7727222    -1.7958336    -2.2579195
H           2.2032079    -2.3981210    -1.5419903
H           3.4288108    -2.4606819    -2.8350972
H           2.0823667    -1.3069329    -2.9465128
O           3.0255818     0.9315686    -3.0343873
C           4.3754312     1.4125763     2.7987695
H           4.3580983     1.4266679     3.8826784
C           4.9034653     0.3402298     2.0845815
H           5.3086042    -0.5329684     2.5930419
N           4.9520355     0.3180089     0.7487856
C           4.4404687     1.3891977     0.1194161
N           3.8449729     2.4414570     0.7017219
C           3.8486642     2.4548948     2.0373374
H           3.3878592     3.3213013     2.5090589
19
063_C6H8N4O_2-0-15-16 (-90,) energy =    -527.7002249
N           4.2394735     1.4327654    -1.1970522
H           5.1149778     1.7666687    -1.5949486
C           3.9197126     0.2563460    -1.9476299
N           2.9133505    -0.4840299    -1.3982653
H           2.3651728    -0.0384424    -0.6724989
C           2.3542820    -1.6241907    -2.1020235
H           1.5259434    -1.3402704    -2.7653386
H           1.9927112    -2.3624025    -1.3797930
H           3.1419647    -2.0711038    -2.7101742
O           4.5021280    -0.0034644    -2.9872270
C           4.6792546     1.4013717     2.8726290
H           4.7987054     1.4246880     3.9501294
C           5.7651810     1.2517824     2.0124140
H           6.7801070     1.1550415     2.3944077
N           5.6302669     1.2150615     0.6830550
C           4.3827915     1.3440103     0.2102312
N           3.2736315     1.5390852     0.9386476
C           3.4321226     1.5319958     2.2664400
H           2.5277049     1.6632169     2.8581257
19
063_C6H8N4O_2-0-15-16 (-75,) energy =    -527.7062151
N           4.4362682     1.2095692    -1.3688836
H           5.3460908     1.4566250    -1.7511418
C           3.9997525     0.0617639    -2.1103131
N           2.9044794    -0.5491100    -1.5852092
H           2.4413243    -0.0824568    -0.8136955
C           2.2676028    -1.6748331    -2.2415112
H           1.2996297    -1.3939766    -2.6757935
H           2.1108001    -2.4982768    -1.5355314
H           2.9263819    -2.0104826    -3.0434106
O           4.5829169    -0.2650040    -3.1315632
C           4.6897504     1.4078648     2.7008702
H           4.7593522     1.4921409     3.7794704
C           5.8211476     1.3747217     1.8875569
H           6.8221549     1.4362059     2.3114103
N           5.7519565     1.2619211     0.5583299
C           4.5187289     1.1954614     0.0337419
N           3.3617968     1.2676734     0.7140314
C           3.4632213     1.3380723     2.0445854
H           2.5250682     1.3671288     2.5961947
19
063_C6H8N4O_2-0-15-16 (-60,) energy =    -527.7113401
N           4.5569993     1.0901346    -1.3321412
H           5.4741904     1.3065302    -1.7122004
C           4.0212085     0.0053941    -2.0998728
N           2.8811573    -0.5315445    -1.5980304
H           2.4916602    -0.1000793    -0.7663839
C           2.1897449    -1.6194663    -2.2616209
H           1.2088876    -1.2999927    -2.6352369
H           2.0468341    -2.4664873    -1.5803232
H           2.8005309    -1.9391241    -3.1068711
O           4.5810381    -0.3298614    -3.1328827
C           4.6761053     1.4546628     2.7237969
H           4.7111221     1.5796108     3.7999483
C           5.8203742     1.5408700     1.9308271
H           6.7962284     1.7415608     2.3702326
N           5.7969535     1.3790870     0.6067668
C           4.5923476     1.1385557     0.0610504
N           3.4210606     1.0778926     0.7201248
C           3.4842905     1.2070031     2.0486216
H           2.5382296     1.1309320     2.5817793
19
063_C6H8N4O_2-0-15-16 (-45,) energy =    -527.7149910
N           4.6572217     0.9586283    -1.2980140
H           5.5677873     1.1733759    -1.6906833
C           4.0338310    -0.0482435    -2.0971194
N           2.8804987    -0.5530449    -1.5953587
H           2.5471353    -0.1670478    -0.7173110
C           2.1198004    -1.5642018    -2.3031523
H           1.1429267    -1.1782058    -2.6201354
H           1.9599473    -2.4467340    -1.6724759
H           2.6873955    -1.8549613    -3.1879276
O           4.5508479    -0.3549095    -3.1621967
C           4.6647273     1.5074389     2.7329585
H           4.6728663     1.6762079     3.8035012
C           5.8045324     1.6814242     1.9460227
H           6.7485236     1.9984789     2.3867027
N           5.8161905     1.4702478     0.6305813
C           4.6488130     1.0837614     0.0819628
N           3.4840390     0.9173913     0.7354587
C           3.5155259     1.1097103     2.0577754
H           2.5756692     0.9542372     2.5845142
19
063_C6H8N4O_2-0-15-16 (-30,) energy =    -527.7172238
N           4.7489971     0.8271707    -1.2505763
H           5.6498843     1.0594064    -1.6521581
C           4.0537533    -0.0948198    -2.0842751
N           2.8876185    -0.5735283    -1.5875181
H           2.6020115    -0.2434990    -0.6701126
C           2.0715267    -1.5096053    -2.3356555
H           1.1000098    -1.0707024    -2.5949511
H           1.8987654    -2.4262356    -1.7591569
H           2.6019351    -1.7603923    -3.2549995
O           4.5355134    -0.3652581    -3.1763985
C           4.6440230     1.5621902     2.7449628
H           4.6260101     1.7751118     3.8073845
C           5.7730078     1.8034151     1.9583962
H           6.6808076     2.2198894     2.3925138
N           5.8174994     1.5428750     0.6539829
C           4.6936375     1.0305517     0.1127183
N           3.5447865     0.7788749     0.7671612
C           3.5432759     1.0351662     2.0794681
H           2.6155779     0.8168508     2.6053739
19
063_C6H8N4O_2-0-15-16 (-15,) energy =    -527.7183655
N           4.8321823     0.6913523    -1.2167676
H           5.7154795     0.9589021    -1.6328637
C           4.0737812    -0.1390116    -2.0853213
N           2.9008358    -0.6023146    -1.5898830
H           2.6573925    -0.3320055    -0.6410296
C           2.0328005    -1.4584370    -2.3744047
H           1.0702643    -0.9714762    -2.5748128
H           1.8440413    -2.4056639    -1.8551192
H           2.5287669    -1.6643613    -3.3235949
O           4.5197702    -0.3616616    -3.2037700
C           4.6260364     1.6150732     2.7329405
H           4.5840970     1.8734038     3.7845210
C           5.7395817     1.9052615     1.9398869
H           6.6105339     2.4074445     2.3586574
N           5.8124273     1.5935124     0.6488672
C           4.7339958     0.9723366     0.1263467
N           3.6070345     0.6545322     0.7900151
C           3.5746001     0.9753538     2.0879969
H           2.6629415     0.7091334     2.6197836
19
063_C6H8N4O_2-0-15-16 (0,) energy =    -527.7187157
N           4.9140325     0.2689694    -1.4834034
H           5.7661449     0.5821007    -1.9306931
C           4.0689801    -0.4371198    -2.3793194
N           2.9059762    -0.9003674    -1.8606417
H           2.7200873    -0.6982138    -0.8821711
C           1.9483672    -1.6223056    -2.6753090
H           0.9925994    -1.0866316    -2.7307090
H           1.7643690    -2.6247223    -2.2700902
H           2.3616144    -1.7154567    -3.6802244
O           4.4461071    -0.5765439    -3.5361581
C           4.7057418     1.3285430     2.4310596
H           4.6658054     1.6189453     3.4743028
C           5.7915687     1.6485065     1.6111773
H           6.6420827     2.2067966     1.9998848
N           5.8602794     1.3017301     0.3291475
C           4.8075592     0.6094328    -0.1560829
N           3.7127472     0.2478102     0.5383629
C           3.6800067     0.6144787     1.8242570
H           2.7916493     0.3184654     2.3792184
19
063_C6H8N4O_2-0-15-16 (15,) energy =    -527.7183697
N           4.9859843     0.1312976    -1.4277737
H           5.8117725     0.4934612    -1.8880455
C           4.0905111    -0.4687436    -2.3536281
N           2.9253855    -0.9307071    -1.8387696
H           2.7721909    -0.7981406    -0.8429524
C           1.9222266    -1.5570460    -2.6773913
H           0.9836254    -0.9893160    -2.6633820
H           1.7161943    -2.5816166    -2.3447206
H           2.3049587    -1.5853545    -3.6981977
O           4.4361730    -0.5384930    -3.5262512
C           4.6815473     1.3697305     2.4283650
H           4.6177439     1.7036761     3.4573086
C           5.7478814     1.7227445     1.5968307
H           6.5589143     2.3514338     1.9616432
N           5.8430851     1.3265517     0.3306614
C           4.8402478     0.5459284    -0.1241572
N           3.7738215     0.1358964     0.5872454
C           3.7080918     0.5620504     1.8532719
H           2.8394944     0.2321885     2.4202981
19
063_C6H8N4O_2-0-15-16 (30,) energy =    -527.7172244
N           5.0497470    -0.0099666    -1.3748543
H           5.8557153     0.3878888    -1.8427598
C           4.1134490    -0.5042446    -2.3275937
N           2.9400440    -0.9535840    -1.8205824
H           2.8146168    -0.8940122    -0.8141454
C           1.8976586    -1.4857217    -2.6762621
H           0.9782149    -0.8928919    -2.5957600
H           1.6674404    -2.5257970    -2.4152719
H           2.2552468    -1.4494034    -3.7059345
O           4.4378497    -0.5128651    -3.5076983
C           4.6489518     1.4140030     2.4103172
H           4.5617485     1.7922266     3.4221184
C           5.6856536     1.8034351     1.5587830
H           6.4491987     2.5061583     1.8892184
N           5.8067302     1.3556932     0.3113089
C           4.8648442     0.4824352    -0.0995714
N           3.8380803     0.0219372     0.6387957
C           3.7375442     0.5080799     1.8803362
H           2.8973569     0.1419227     2.4675942
19
063_C6H8N4O_2-0-15-16 (45,) energy =    -527.7149910
N           5.1080487    -0.1624541    -1.3343771
H           5.9046368     0.2544786    -1.8045514
C           4.1417303    -0.5475561    -2.3137702
N           2.9542021    -0.9728087    -1.8181515
H           2.8522507    -0.9927394    -0.8080174
C           1.8782813    -1.4096809    -2.6862129
H           0.9792346    -0.7987113    -2.5398631
H           1.6224941    -2.4597843    -2.4995297
H           2.2154951    -1.3058908    -3.7182261
O           4.4538178    -0.5005911    -3.4953565
C           4.6211226     1.4492976     2.3690529
H           4.5132303     1.8715415     3.3613627
C           5.6130811     1.8769972     1.4848387
H           6.3201080     2.6554731     1.7675588
N           5.7556610     1.3763880     0.2584075
C           4.8864654     0.4094255    -0.0918425
N           3.9156743    -0.1021056     0.6874802
C           3.7827102     0.4432024     1.9005352
H           2.9831217     0.0398458     2.5193360
19
063_C6H8N4O_2-0-15-16 (60,) energy =    -527.7113358
N           5.1567898    -0.3136892    -1.2797425
H           5.9555829     0.1135806    -1.7400671
C           4.1754412    -0.5821640    -2.2888931
N           2.9710004    -0.9832188    -1.8111554
H           2.8816846    -1.0881521    -0.8058849
C           1.8674489    -1.3120160    -2.6920440
H           0.9969798    -0.6757662    -2.4910909
H           1.5691757    -2.3611796    -2.5771378
H           2.1984826    -1.1494861    -3.7185436
O           4.4836780    -0.4744215    -3.4663117
C           4.5895312     1.4773306     2.3352707
H           4.4628662     1.9422578     3.3062185
C           5.5175325     1.9459910     1.4053251
H           6.1541493     2.8011223     1.6269438
N           5.6788859     1.3925980     0.2021878
C           4.8993351     0.3321822    -0.0709791
N           4.0051818    -0.2302441     0.7621813
C           3.8413493     0.3704862     1.9445092
H           3.0980462    -0.0710796     2.6060155
19
063_C6H8N4O_2-0-15-16 (75,) energy =    -527.7062286
N           5.1920105    -0.5277459    -1.2338598
H           6.0213866    -0.1392238    -1.6768031
C           4.2234160    -0.6791455    -2.2805181
N           2.9704779    -0.9644458    -1.8359146
H           2.8684027    -1.1724274    -0.8491191
C           1.8836593    -1.2487336    -2.7534662
H           0.9630129    -0.7628598    -2.4134022
H           1.6992854    -2.3269732    -2.8492625
H           2.1572682    -0.8560435    -3.7336475
O           4.5621333    -0.5767222    -3.4486777
C           4.5682583     1.4944456     2.2571750
H           4.4285528     2.0178956     3.1962216
C           5.4168824     1.9762875     1.2618255
H           5.9755415     2.9011274     1.3961246
N           5.5922247     1.3481943     0.0961701
C           4.9110728     0.2035969    -0.0671644
N           4.1075469    -0.3783198     0.8390904
C           3.9193381     0.2940790     1.9786427
H           3.2449770    -0.1642842     2.7000018
19
063_C6H8N4O_2-0-15-16 (90,) energy =    -527.7002216
N           5.1976171    -0.6724265    -1.1444559
H           6.0606329    -0.3302802    -1.5619509
C           4.2595748    -0.7236409    -2.2236864
N           2.9711882    -0.9164292    -1.8157369
H           2.8368406    -1.2037022    -0.8538662
C           1.9031181    -1.1393460    -2.7728248
H           0.9880809    -0.6378335    -2.4410909
H           1.6905421    -2.2075858    -2.9138450
H           2.2165421    -0.7207610    -3.7299932
O           4.6296351    -0.6256089    -3.3818976
C           4.5450484     1.5154186     2.2528496
H           4.3994127     2.0832919     3.1650431
C           5.2559384     2.0290715     1.1700031
H           5.6958739     3.0244570     1.2022586
N           5.4369107     1.3423609     0.0376931
C           4.9048293     0.1127768    -0.0013412
N           4.2447189    -0.4986659     0.9931811
C           4.0434649     0.2252020     2.0994742
H           3.4836443    -0.2617301     2.8962076
19
063_C6H8N4O_2-0-15-16 (105,) energy =    -527.7056299
N           5.3433994    -0.5649909    -1.2627781
H           6.0368453    -1.2945632    -1.1162713
C           4.3107667    -1.1697185    -2.0548275
N           3.1951042    -0.4070585    -2.1897618
H           3.2255170     0.5291018    -1.8027958
C           2.0667791    -0.8313939    -2.9953447
H           1.9716953    -0.2259658    -3.9057039
H           1.1325817    -0.7596925    -2.4265151
H           2.2330378    -1.8705247    -3.2821740
O           4.4985293    -2.2624653    -2.5658494
C           4.4986256     1.2306823     2.3085963
H           4.2790058     1.7084795     3.2566689
C           4.1206442     1.7957009     1.0933768
H           3.5764219     2.7377000     1.0531529
N           4.4046312     1.2297516    -0.0840238
C           5.0653168     0.0605467    -0.0358229
N           5.4133201    -0.6077678     1.0746692
C           5.1537563     0.0023431     2.2342151
H           5.4603729    -0.5288067     3.1338587
19
063_C6H8N4O_2-0-15-16 (120,) energy =    -527.7106913
N           5.2672975    -0.6805235    -1.1717252
H           5.9431668    -1.4224562    -1.0138443
C           4.2622606    -1.2065525    -2.0475697
N           3.1774847    -0.4091873    -2.2097217
H           3.1930947     0.4935683    -1.7472130
C           2.0859293    -0.7707082    -3.0926831
H           2.0422823    -0.1100648    -3.9678101
H           1.1255163    -0.7200596    -2.5666222
H           2.2548340    -1.7931435    -3.4329243
O           4.4547944    -2.2807771    -2.5969243
C           4.5458081     1.2746237     2.3323024
H           4.3637618     1.7943803     3.2659542
C           4.0229324     1.7247318     1.1238554
H           3.3997081     2.6158565     1.0742417
N           4.2555037     1.1061737    -0.0383561
C           5.0129230    -0.0030788     0.0208409
N           5.5207512    -0.5584402     1.1350422
C           5.3023278     0.1037859     2.2721616
H           5.7314695    -0.3355130     3.1713533
19
063_C6H8N4O_2-0-15-16 (135,) energy =    -527.7145310
N           5.1756592    -0.7047236    -0.9595549
H           5.8532255    -1.4398506    -0.7864274
C           4.2492001    -1.1553779    -1.9497796
N           3.1918229    -0.3365163    -2.1683923
H           3.1438508     0.5166011    -1.6199968
C           2.1683708    -0.6561925    -3.1442161
H           2.1151477     0.1119576    -3.9252300
H           1.1828583    -0.7431667    -2.6705635
H           2.4280791    -1.6106152    -3.6037701
O           4.4843177    -2.2008036    -2.5391651
C           4.4653610     1.4034771     2.4486782
H           4.2892110     1.9633932     3.3597884
C           3.8515965     1.7393834     1.2465647
H           3.1626971     2.5794960     1.1791771
N           4.0700146     1.0690030     0.1108043
C           4.9105570     0.0214241     0.1913624
N           5.5265441    -0.4168573     1.3055126
C           5.3102205     0.2927552     2.4124546
H           5.8210768    -0.0543576     3.3093229
19
063_C6H8N4O_2-0-15-16 (150,) energy =    -527.7170128
N           5.0771502    -0.8195449    -0.8663810
H           5.7679439    -1.5442359    -0.7096980
C           4.2103911    -1.1858456    -1.9361347
N           3.1686638    -0.3494281    -2.1616624
H           3.0758813     0.4544277    -1.5474667
C           2.2060039    -0.6030330    -3.2156456
H           2.1883993     0.2212554    -3.9388983
H           1.1962175    -0.7317391    -2.8068980
H           2.5013753    -1.5187758    -3.7290610
O           4.4770207    -2.1928929    -2.5784654
C           4.5059445     1.4512249     2.4562296
H           4.3682464     2.0528814     3.3470013
C           3.7889216     1.6869841     1.2889369
H           3.0552957     2.4888040     1.2280696
N           3.9534629     0.9607596     0.1783034
C           4.8513620    -0.0391362     0.2490475
N           5.5837448    -0.3714549     1.3313861
C           5.4082512     0.3857109     2.4119321
H           6.0069398     0.1206382     3.2821676
19
063_C6H8N4O_2-0-15-16 (165,) energy =    -527.7183175
N           3.4391635     1.4928544    -0.9626944
H           3.4155013     2.4248716    -1.3573771
C           3.2948806     0.4953335    -1.9646456
N           3.3827718    -0.7885483    -1.5407727
H           3.5613579    -0.9413857    -0.5521138
C           3.2591121    -1.9003334    -2.4629427
H           2.4129012    -2.5437569    -2.1928148
H           4.1718722    -2.5086586    -2.4729164
H           3.0915879    -1.4942841    -3.4611416
O           3.0905409     0.8604180    -3.1154259
C           4.7151307     1.4751122     2.8930884
H           5.0537782     1.4868829     3.9223891
C           4.3954986     0.2932235     2.2360288
H           4.4751642    -0.6711806     2.7344170
N           3.9718352     0.2602330     0.9679040
C           3.8756232     1.4475091     0.3413941
N           4.1680900     2.6516639     0.8765639
C           4.5767784     2.6457834     2.1423433
H           4.8087656     3.6189227     2.5728297
19
063_C6H8N4O_2-0-15-16 (180,) energy =    -527.7187146
N           3.6142310     1.4966572    -1.0080170
H           3.5285472     2.4310230    -1.3872803
C           3.3410606     0.4989410    -1.9802683
N           3.4241322    -0.7851188    -1.5553976
H           3.6877529    -0.9380651    -0.5858946
C           3.1852551    -1.8968281    -2.4548041
H           2.3513620    -2.5161902    -2.1025664
H           4.0766828    -2.5295956    -2.5459690
H           2.9362673    -1.4905801    -3.4357575
O           3.0516223     0.8639962    -3.1129197
C           4.6605160     1.4764731     2.9151938
H           4.9399853     1.4883158     3.9621016
C           4.4588233     0.2909593     2.2193887
H           4.5751547    -0.6767091     2.7040435
N           4.1139598     0.2575182     0.9275152
C           3.9677931     1.4492990     0.3192968
N           4.1380916     2.6585580     0.8951705
C           4.4805935     2.6516468     2.1801675
H           4.6175183     3.6284167     2.6420651
