21
220_C8H10O2S_0-4-5-16 (-165,) energy =    -859.4506504
C           0.7898251    -1.4576527     0.6835719
H          -0.0647148    -2.1179268     0.5177270
H           0.6792541    -0.5448452     0.0951669
H           0.8878038    -1.2356951     1.7487086
S           2.2458233    -2.3716023     0.1082008
C           3.6359172    -1.2215369     0.5014989
H           3.2968382    -0.2265790     0.1958908
H           3.7412305    -1.2491949     1.5896025
O           2.3935848    -3.5714720     0.9478717
O           2.1348951    -2.4828731    -1.3539152
C           7.2294179    -2.3965298    -1.5593280
H           8.1365570    -2.6935918    -2.0785505
C           6.3779530    -1.4464195    -2.1262336
H           6.6174622    -1.0043205    -3.0893767
C           5.2147717    -1.0636917    -1.4596105
H           4.5487670    -0.3312942    -1.9080552
C           4.8952901    -1.6205848    -0.2152021
C           5.7493780    -2.5809670     0.3434293
H           5.4970528    -3.0309426     1.2998408
C           6.9114126    -2.9650529    -0.3244624
H           7.5675092    -3.7086383     0.1194433
21
220_C8H10O2S_0-4-5-16 (-150,) energy =    -859.4490487
C           0.8089331    -1.3790397     0.4991496
H          -0.0620082    -2.0177529     0.3345167
H           0.8242896    -0.5690397    -0.2324332
H           0.8007700    -0.9930571     1.5212081
S           2.2594529    -2.4373791     0.2475468
C           3.6766331    -1.2989695     0.6206913
H           3.3257964    -0.2922382     0.3711302
H           3.8221948    -1.3698890     1.7014816
O           2.2450597    -3.4940493     1.2725754
O           2.2891696    -2.7760541    -1.1828593
C           7.1970176    -2.3492950    -1.6254182
H           8.0865157    -2.6143490    -2.1904272
C           6.3153349    -1.3858737    -2.1190125
H           6.5144962    -0.9007475    -3.0705719
C           5.1748480    -1.0444387    -1.3935591
H           4.4873585    -0.2989060    -1.7850106
C           4.9067924    -1.6567255    -0.1633947
C           5.7931427    -2.6272235     0.3227205
H           5.5848120    -3.1155136     1.2712995
C           6.9323637    -2.9711454    -0.4038482
H           7.6128881    -3.7237956    -0.0154691
21
220_C8H10O2S_0-4-5-16 (-135,) energy =    -859.4473568
C           0.8523262    -1.2928292     0.3129004
H          -0.0389519    -1.9058085     0.1600587
H           0.9958324    -0.6208576    -0.5355549
H           0.7684445    -0.7388413     1.2507071
S           2.2458268    -2.4493640     0.4032951
C           3.7031673    -1.3343006     0.7438216
H           3.3521055    -0.3134330     0.5614509
H           3.8913345    -1.4585557     1.8128079
O           2.0541410    -3.3015217     1.5888702
O           2.3899778    -3.0427589    -0.9336254
C           7.1271736    -2.2957392    -1.6834283
H           7.9925078    -2.5382729    -2.2941601
C           6.2290395    -1.3119495    -2.1011628
H           6.3919063    -0.7870114    -3.0384089
C           5.1197549    -0.9999764    -1.3165351
H           4.4220580    -0.2343006    -1.6476194
C           4.8969899    -1.6633270    -0.1038256
C           5.8024079    -2.6506241     0.3070819
H           5.6349552    -3.1745123     1.2449577
C           6.9107158    -2.9655803    -0.4778432
H           7.6053896    -3.7326689    -0.1470422
21
220_C8H10O2S_0-4-5-16 (-120,) energy =    -859.4468283
C           0.9101406    -1.3454528     0.0975118
H           0.0205920    -1.9650572    -0.0372473
H           1.1758008    -0.8616663    -0.8449630
H           0.7401569    -0.6120551     0.8886748
S           2.2391277    -2.4743660     0.5933917
C           3.7035641    -1.3373002     0.8417106
H           3.3333481    -0.3189422     0.6880359
H           3.9361716    -1.4677365     1.9016858
O           1.8860713    -3.0118817     1.9186565
O           2.4965053    -3.3766906    -0.5373778
C           7.0479030    -2.2537618    -1.7112977
H           7.8930328    -2.4848809    -2.3538745
C           6.1836361    -1.2086776    -2.0406694
H           6.3529538    -0.6221863    -2.9395525
C           5.1003242    -0.9127893    -1.2137691
H           4.4319192    -0.0945873    -1.4734045
C           4.8686088    -1.6537129    -0.0483168
C           5.7425228    -2.7005348     0.2742353
H           5.5713928    -3.2841397     1.1753578
C           6.8243723    -2.9993860    -0.5518810
H           7.4935032    -3.8142496    -0.2899039
21
220_C8H10O2S_0-4-5-16 (-105,) energy =    -859.4480430
C           1.0335440    -1.4491749    -0.1188033
H           0.1513039    -2.0800879    -0.2489584
H           1.4249302    -1.1475205    -1.0931440
H           0.7898781    -0.5835318     0.5001679
S           2.2611454    -2.4689839     0.7394042
C           3.7354580    -1.3398108     0.9026281
H           3.3580354    -0.3186310     0.7940079
H           4.0156546    -1.4904999     1.9495253
O           1.7565882    -2.6876779     2.1060491
O           2.5963708    -3.6074726    -0.1270099
C           6.9795433    -2.2050828    -1.7948113
H           7.8003421    -2.4218361    -2.4729693
C           6.1649847    -1.0938872    -2.0147135
H           6.3483039    -0.4401487    -2.8630721
C           5.1132147    -0.8177208    -1.1407434
H           4.4852603     0.0542663    -1.3119562
C           4.8644728    -1.6438312    -0.0372023
C           5.6879953    -2.7582448     0.1742214
H           5.5007355    -3.4119869     1.0215938
C           6.7378764    -3.0363580    -0.6984863
H           7.3680817    -3.9037578    -0.5229470
21
220_C8H10O2S_0-4-5-16 (-90,) energy =    -859.4502285
C           1.1895413    -1.4416113    -0.4079915
H           0.2979493    -2.0553565    -0.5552386
H           1.7303657    -1.3333984    -1.3510949
H           0.9156851    -0.4713596     0.0104262
S           2.2249781    -2.3295567     0.7835171
C           3.7388318    -1.2707000     0.9283189
H           3.3957682    -0.2342565     0.8576432
H           4.0317860    -1.4565759     1.9670315
O           1.5483930    -2.2496265     2.0893270
O           2.5860079    -3.6319796     0.2056025
C           6.8990059    -2.1878196    -1.8519505
H           7.6983489    -2.4174133    -2.5511904
C           6.1388493    -1.0292724    -2.0141201
H           6.3432757    -0.3510393    -2.8380827
C           5.1147307    -0.7371350    -1.1125787
H           4.5307642     0.1725838    -1.2370070
C           4.8405084    -1.5941175    -0.0383562
C           5.6089200    -2.7568671     0.1146511
H           5.3960583    -3.4366413     0.9342100
C           6.6307405    -3.0501786    -0.7860214
H           7.2183877    -3.9547095    -0.6561779
21
220_C8H10O2S_0-4-5-16 (-75,) energy =    -859.4522181
C           1.3562749    -1.5667071    -0.5419309
H           0.4548971    -2.1662638    -0.6880751
H           2.0023753    -1.6370060    -1.4196743
H           1.0897946    -0.5310032    -0.3230198
S           2.2078140    -2.2757246     0.8893018
C           3.7531249    -1.2788375     1.0253514
H           3.4375843    -0.2316060     1.0093288
H           4.0739611    -1.5150695     2.0460383
O           1.4100729    -1.9578486     2.0854277
O           2.5588695    -3.6687462     0.5740468
C           6.7898810    -2.1537877    -1.9049946
H           7.5582967    -2.3717995    -2.6416226
C           6.0707608    -0.9603353    -1.9762701
H           6.2765142    -0.2435044    -2.7665394
C           5.0865598    -0.6828062    -1.0266839
H           4.5351552     0.2537089    -1.0796202
C           4.8123532    -1.5897236     0.0062340
C           5.5392913    -2.7875473     0.0680580
H           5.3220387    -3.5047902     0.8533047
C           6.5206377    -3.0658698    -0.8815218
H           7.0765808    -3.9974509    -0.8222849
21
220_C8H10O2S_0-4-5-16 (-60,) energy =    -859.4531834
C           1.5345806    -1.6701668    -0.6188737
H           0.5949151    -2.2167578    -0.7268610
H           2.2382210    -1.9645452    -1.3991817
H           1.3477222    -0.5944835    -0.6354222
S           2.1980144    -2.1392606     0.9978017
C           3.7897411    -1.2242017     1.1192784
H           3.5211984    -0.1641676     1.1373108
H           4.1322441    -1.5029673     2.1220603
O           1.3137109    -1.5828067     2.0347015
O           2.4913244    -3.5815222     0.9644516
C           6.6839801    -2.1275652    -1.9468238
H           7.4164876    -2.3527812    -2.7171106
C           6.0492207    -0.8851585    -1.9251327
H           6.2853706    -0.1371680    -2.6770748
C           5.1109303    -0.5988626    -0.9325974
H           4.6248420     0.3742896    -0.9143494
C           4.7989228    -1.5468047     0.0517220
C           5.4416506    -2.7936460     0.0216809
H           5.1937684    -3.5407316     0.7691236
C           6.3764599    -3.0797988    -0.9719837
H           6.8673195    -4.0490097    -0.9839748
21
220_C8H10O2S_0-4-5-16 (-45,) energy =    -859.4527413
C           1.6903235    -1.8500088    -0.6764964
H           0.7151605    -2.3348697    -0.7630526
H           2.4209618    -2.3415042    -1.3192966
H           1.6038199    -0.7875096    -0.9135654
S           2.1769775    -2.0504447     1.0548355
C           3.8132107    -1.2139184     1.1919385
H           3.5925556    -0.1452645     1.2591770
H           4.1623191    -1.5578630     2.1714777
O           1.2320070    -1.2951406     1.8929386
O           2.3931583    -3.4897299     1.2849753
C           6.5837095    -2.0899870    -1.9942565
H           7.2835317    -2.3090429    -2.7960216
C           6.0218689    -0.8174485    -1.8829208
H           6.2826593    -0.0403991    -2.5962471
C           5.1245144    -0.5383342    -0.8512920
H           4.6941942     0.4569986    -0.7647545
C           4.7822293    -1.5243510     0.0838650
C           5.3533489    -2.8009405    -0.0342006
H           5.0824961    -3.5747003     0.6781236
C           6.2459467    -3.0800677    -1.0682560
H           6.6812626    -4.0722922    -1.1489337
21
220_C8H10O2S_0-4-5-16 (-30,) energy =    -859.4510364
C           1.8110779    -1.9904670    -0.7103492
H           0.7991689    -2.3929098    -0.7982711
H           2.5290799    -2.6453903    -1.2033136
H           1.8514838    -0.9796966    -1.1212994
S           2.1462667    -1.9494223     1.0680201
C           3.8480407    -1.2406316     1.2490622
H           3.6956511    -0.1686104     1.3970664
H           4.1816667    -1.6854540     2.1916300
O           1.2065099    -1.0064109     1.6953057
O           2.2144461    -3.3514705     1.5181390
C           6.5133340    -2.0445110    -2.0425177
H           7.1852162    -2.2471488    -2.8719537
C           5.9838350    -0.7653031    -1.8663876
H           6.2427266     0.0326158    -2.5569683
C           5.1223104    -0.5057360    -0.7996216
H           4.7171761     0.4944447    -0.6630448
C           4.7837654    -1.5195968     0.1062020
C           5.3241416    -2.8021604    -0.0759852
H           5.0606876    -3.5949204     0.6192957
C           6.1807652    -3.0622794    -1.1448835
H           6.5929586    -4.0592123    -1.2743366
21
220_C8H10O2S_0-4-5-16 (-15,) energy =    -859.4490372
C           2.1054365    -2.8761239     0.0726762
H           1.1489522    -3.2988643     0.3890054
H           2.9074196    -3.2065188     0.7326060
H           2.3147079    -3.1447184    -0.9641169
S           1.8887379    -1.0850628     0.2212946
C           3.4969014    -0.3094063    -0.3139556
H           3.2654416     0.1404061    -1.2824149
H           3.6333051     0.4822357     0.4277347
O           0.8574104    -0.6714477    -0.7442764
O           1.7308432    -0.7983160     1.6582054
C           6.8670799    -2.9878610    -0.5403515
H           7.7162076    -3.6632832    -0.5965862
C           6.1634073    -2.6489581    -1.6973310
H           6.4638909    -3.0579743    -2.6580465
C           5.0748614    -1.7789413    -1.6251359
H           4.5344038    -1.5118423    -2.5304633
C           4.6771545    -1.2349180    -0.3961252
C           5.3943286    -1.5771823     0.7605436
H           5.0958318    -1.1563513     1.7177356
C           6.4802943    -2.4489982     0.6890507
H           7.0281568    -2.7030499     1.5922867
21
220_C8H10O2S_0-4-5-16 (0,) energy =    -859.4481692
C           2.1336920    -2.8767832     0.1691475
H           1.1480799    -3.3035439     0.3693275
H           2.8232605    -3.1122925     0.9804939
H           2.5179262    -3.2345037    -0.7866859
S           1.8526568    -1.0901088     0.0942425
C           3.5127744    -0.2968202    -0.2341927
H           3.3366434     0.2733540    -1.1495773
H           3.6270567     0.3929312     0.6055817
O           1.0067227    -0.8317040    -1.0834375
O           1.4235204    -0.6613360     1.4363867
C           6.8528449    -2.9976058    -0.6024676
H           7.6945831    -3.6782350    -0.6949775
C           6.1161274    -2.6360270    -1.7322640
H           6.3835938    -3.0328010    -2.7077438
C           5.0386182    -1.7581366    -1.6137342
H           4.4719379    -1.4728647    -2.4971214
C           4.6819191    -1.2304102    -0.3641146
C           5.4315030    -1.5960310     0.7636090
H           5.1717071    -1.1842615     1.7361567
C           6.5090593    -2.4738747     0.6455214
H           7.0834678    -2.7440306     1.5273323
21
220_C8H10O2S_0-4-5-16 (15,) energy =    -859.4490372
C           2.1381891    -2.8622169     0.2705860
H           1.1402428    -3.3017327     0.3381662
H           2.6759959    -2.9956192     1.2107150
H           2.6919348    -3.2949554    -0.5624515
S           1.8461874    -1.1022926    -0.0365589
C           3.5237010    -0.2981499    -0.1532361
H           3.3975816     0.3850469    -0.9974744
H           3.6054756     0.2809804     0.7696613
O           1.2294830    -1.0050005    -1.3715003
O           1.1703174    -0.5418079     1.1450078
C           6.8458295    -2.9965786    -0.6673344
H           7.6826415    -3.6771506    -0.7974868
C           6.0739508    -2.6162343    -1.7677710
H           6.3087680    -2.9990834    -2.7571239
C           5.0037240    -1.7378472    -1.6018516
H           4.4052669    -1.4405825    -2.4597026
C           4.6878178    -1.2303960    -0.3321814
C           5.4700443    -1.6161428     0.7650855
H           5.2429409    -1.2203996     1.7524486
C           6.5428628    -2.4927091     0.5987514
H           7.1440963    -2.7779023     1.4576688
21
220_C8H10O2S_0-4-5-16 (30,) energy =    -859.4510364
C           2.1078801    -2.8206231     0.4108599
H           1.1129840    -3.2709494     0.3786612
H           2.4976724    -2.8408344     1.4305774
H           2.7817527    -3.3282245    -0.2788516
S           1.8650580    -1.1087880    -0.1251376
C           3.5347954    -0.3102971    -0.0505232
H           3.4472156     0.4736406    -0.8090608
H           3.5837502     0.1554367     0.9369239
O           1.4768933    -1.1614565    -1.5462469
O           1.0076370    -0.4314359     0.8607240
C           6.8561685    -2.9711878    -0.7376967
H           7.6933642    -3.6416683    -0.9109336
C           6.0416070    -2.5769882    -1.8022410
H           6.2430986    -2.9403560    -2.8061810
C           4.9710257    -1.7111662    -1.5827036
H           4.3337556    -1.4087400    -2.4095812
C           4.6975789    -1.2317582    -0.2921090
C           5.5193831    -1.6333667     0.7692411
H           5.3230372    -1.2608905     1.7721705
C           6.5939034    -2.4959358     0.5480190
H           7.2266166    -2.7933792     1.3797618
21
220_C8H10O2S_0-4-5-16 (45,) energy =    -859.4527413
C           2.0166887    -2.7696486     0.5675251
H           1.0371234    -3.2384295     0.4482721
H           2.2458253    -2.6429204     1.6277247
H           2.7855711    -3.3551029     0.0628897
S           1.8752835    -1.1482531    -0.2234233
C           3.5265431    -0.3612690    -0.0002080
H           3.4638133     0.4943549    -0.6811229
H           3.5372058     0.0140051     1.0265762
O           1.6849669    -1.3800743    -1.6660865
O           0.9051022    -0.3440714     0.5367824
C           6.8959295    -2.9265547    -0.8138098
H           7.7466040    -3.5709809    -1.0178415
C           6.0737027    -2.4983098    -1.8589708
H           6.2821426    -2.8103095    -2.8786453
C           4.9851433    -1.6660389    -1.6014981
H           4.3396243    -1.3431476    -2.4129836
C           4.7021632    -1.2540984    -0.2899950
C           5.5306115    -1.6910841     0.7524191
H           5.3257115    -1.3716050     1.7718816
C           6.6228080    -2.5200364     0.4929250
H           7.2599196    -2.8448968     1.3109730
21
220_C8H10O2S_0-4-5-16 (60,) energy =    -859.4531835
C           1.8944542    -2.6915956     0.7646839
H           0.9408157    -3.1928032     0.5836957
H           1.9642993    -2.3825572     1.8096239
H           2.7252456    -3.3412868     0.4847934
S           1.8932225    -1.2257382    -0.2960181
C           3.5256339    -0.4364484     0.0168867
H           3.4638808     0.4610573    -0.6086210
H           3.5056665    -0.1199270     1.0635605
O           1.8566281    -1.6810161    -1.6955417
O           0.8724867    -0.2942570     0.2111533
C           6.9650288    -2.8729841    -0.8915732
H           7.8345098    -3.4833232    -1.1198419
C           6.1635413    -2.3803679    -1.9243711
H           6.4065926    -2.6091968    -2.9583083
C           5.0503168    -1.5922162    -1.6368192
H           4.4205542    -1.2228482    -2.4400740
C           4.7228734    -1.2872772    -0.3070539
C           5.5306126    -1.7890340     0.7228053
H           5.2908284    -1.5520272     1.7571870
C           6.6467069    -2.5754098     0.4339977
H           7.2668298    -2.9509570     1.2433870
21
220_C8H10O2S_0-4-5-16 (75,) energy =    -859.4522180
C           1.7285541    -2.6267059     0.8944195
H           0.8111335    -3.1726027     0.6628210
H           1.6408921    -2.1349752     1.8650570
H           2.5868493    -3.3013907     0.8633890
S           1.9063881    -1.3683567    -0.3944457
C           3.5096608    -0.5488309     0.0032805
H           3.4315554     0.3746952    -0.5811351
H           3.4546626    -0.2788366     1.0618630
O           2.0224617    -2.0502510    -1.6923946
O           0.8628972    -0.3532288    -0.1735758
C           7.0441233    -2.8197065    -0.9592082
H           7.9376689    -3.3886588    -1.2010775
C           6.2713363    -2.2600236    -1.9797099
H           6.5605135    -2.3962011    -3.0180869
C           5.1272971    -1.5252894    -1.6739037
H           4.5213317    -1.1046272    -2.4702253
C           4.7401357    -1.3401230    -0.3386574
C           5.5191421    -1.9089271     0.6783502
H           5.2336284    -1.7645313     1.7183269
C           6.6659336    -2.6426921     0.3719998
H           7.2632484    -3.0709394     1.1723237
21
220_C8H10O2S_0-4-5-16 (90,) energy =    -859.4502286
C           1.5410801    -2.5082032     1.0211226
H           0.6255306    -3.0528890     0.7794921
H           1.3771586    -1.8559165     1.8808376
H           2.3588126    -3.2101667     1.2005839
S           1.9246685    -1.4932949    -0.4289978
C           3.5075692    -0.6459800     0.0304206
H           3.4075713     0.3013530    -0.5098513
H           3.4399876    -0.4297865     1.1007020
O           2.1559196    -2.3866615    -1.5731356
O           0.9037380    -0.4339519    -0.4983552
C           7.1043489    -2.7639910    -1.0352107
H           8.0132500    -3.2952634    -1.3040453
C           6.3310096    -2.1523913    -2.0250006
H           6.6350202    -2.2103116    -3.0664252
C           5.1668466    -1.4669960    -1.6838768
H           4.5627425    -1.0040190    -2.4583595
C           4.7599608    -1.3830625    -0.3447996
C           5.5400237    -2.0026690     0.6406731
H           5.2387726    -1.9371805     1.6842423
C           6.7068420    -2.6878254     0.2999344
H           7.3044765    -3.1573184     1.0765361
21
220_C8H10O2S_0-4-5-16 (105,) energy =    -859.4480428
C           1.3592408    -2.3550440     1.1089184
H           0.4457492    -2.8980237     0.8558415
H           1.1389827    -1.5591061     1.8229281
H           2.1098213    -3.0465287     1.4987730
S           1.9545805    -1.6207384    -0.4370225
C           3.5168640    -0.7376942     0.0675876
H           3.3918781     0.2324650    -0.4226988
H           3.4514901    -0.5844244     1.1489293
O           2.2748532    -2.7114025    -1.3681903
O           0.9909557    -0.5713733    -0.8117206
C           7.1634738    -2.7034529    -1.1112039
H           8.0851723    -3.1960656    -1.4085802
C           6.3826336    -2.0430313    -2.0627837
H           6.6938860    -2.0234469    -3.1034815
C           5.2020954    -1.4076905    -1.6833432
H           4.5955569    -0.9011762    -2.4290386
C           4.7854884    -1.4237591    -0.3451031
C           5.5737502    -2.0906966     0.6014559
H           5.2645192    -2.1044634     1.6446153
C           6.7568411    -2.7259939     0.2232176
H           7.3601572    -3.2343863     0.9703636
21
220_C8H10O2S_0-4-5-16 (120,) energy =    -859.4468282
C           1.2001717    -2.1538745     1.1894904
H           0.2844589    -2.6992944     0.9500025
H           0.9586336    -1.2281961     1.7162535
H           1.8690282    -2.7854181     1.7782798
S           1.9816282    -1.7610546    -0.3984492
C           3.5087878    -0.8005841     0.0958648
H           3.3408525     0.1769319    -0.3634060
H           3.4641305    -0.6878310     1.1835339
O           2.3740779    -3.0317224    -1.0233192
O           1.0943325    -0.8195568    -1.1028478
C           7.1869920    -2.6276231    -1.1984091
H           8.1157368    -3.0866850    -1.5259400
C           6.4222978    -1.8772037    -2.0941217
H           6.7526281    -1.7520509    -3.1215309
C           5.2328799    -1.2850249    -1.6736839
H           4.6402648    -0.7026196    -2.3747792
C           4.7909440    -1.4366174    -0.3525685
C           5.5638223    -2.1921218     0.5378310
H           5.2343393    -2.3139719     1.5675110
C           6.7555248    -2.7835558     0.1196075
H           7.3467207    -3.3634578     0.8230436
21
220_C8H10O2S_0-4-5-16 (135,) energy =    -859.4473570
C           1.0891148    -1.9540534     1.2031473
H           0.1795164    -2.5146308     0.9754195
H           0.8346268    -0.9342162     1.5009008
H           1.6606394    -2.4652572     1.9803155
S           2.0564197    -1.9249428    -0.3301719
C           3.5411037    -0.8887199     0.1228292
H           3.3308659     0.0884422    -0.3182029
H           3.5239829    -0.7969489     1.2137087
O           2.4878729    -3.3068537    -0.5839986
O           1.2871502    -1.1785447    -1.3399139
C           7.2400786    -2.5970487    -1.2695859
H           8.1740482    -3.0261175    -1.6220195
C           6.4851650    -1.7768285    -2.1100486
H           6.8277230    -1.5662458    -3.1193725
C           5.2889968    -1.2232324    -1.6558107
H           4.7020776    -0.5858901    -2.3126516
C           4.8327929    -1.4833804    -0.3567508
C           5.5943740    -2.3107488     0.4773767
H           5.2488308    -2.5227819     1.4864750
C           6.7920626    -2.8629573     0.0256315
H           7.3748829    -3.5004721     0.6847455
21
220_C8H10O2S_0-4-5-16 (150,) energy =    -859.4490487
C           0.9681507    -1.8181544     1.1022427
H           0.0737807    -2.3921273     0.8487594
H           0.7166441    -0.7595363     1.2008596
H           1.4175187    -2.2077579     2.0175720
S           2.1216601    -2.0556124    -0.2763128
C           3.5660466    -0.9923854     0.2000888
H           3.3259040     0.0027011    -0.1826021
H           3.5694263    -0.9647542     1.2946687
O           2.5387589    -3.4649091    -0.2369135
O           1.5172737    -1.4816577    -1.4898773
C           7.2686518    -2.5463123    -1.3541850
H           8.2034659    -2.9365123    -1.7473036
C           6.4760731    -1.7060578    -2.1382681
H           6.7893584    -1.4417452    -3.1444676
C           5.2789033    -1.2021015    -1.6315373
H           4.6596415    -0.5521204    -2.2444591
C           4.8618753    -1.5315464    -0.3348651
C           5.6582110    -2.3820411     0.4414091
H           5.3377226    -2.6531171     1.4441509
C           6.8567828    -2.8839349    -0.0636052
H           7.4678827    -3.5398949     0.5502101
21
220_C8H10O2S_0-4-5-16 (165,) energy =    -859.4506504
C           0.8710044    -1.6814237     0.9904788
H          -0.0131371    -2.2597761     0.7120754
H           0.6628631    -0.6133338     0.8943225
H           1.1828520    -1.9365532     2.0050315
S           2.1709229    -2.1635304    -0.1774619
C           3.5867595    -1.0847727     0.3138505
H           3.3179959    -0.0779791    -0.0177422
H           3.6163900    -1.1096362     1.4078431
O           2.5244341    -3.5589730     0.1229785
O           1.7414856    -1.7673259    -1.5284407
C           7.2652625    -2.4943162    -1.4244744
H           8.1934492    -2.8493950    -1.8639417
C           6.4320420    -1.6370496    -2.1456513
H           6.7070895    -1.3253962    -3.1494673
C           5.2429553    -1.1784512    -1.5801943
H           4.5894902    -0.5191580    -2.1451652
C           4.8771789    -1.5694480    -0.2851607
C           5.7120548    -2.4389433     0.4273576
H           5.4266291    -2.7607893     1.4253601
C           6.9020731    -2.8956497    -0.1375742
H           7.5438706    -3.5667748     0.4264751
21
220_C8H10O2S_0-4-5-16 (180,) energy =    -859.4512587
C           0.8153456    -1.5371271     0.8264730
H          -0.0459379    -2.1655091     0.5874856
H           0.6427662    -0.5176440     0.4752085
H           1.0093743    -1.5608801     1.9007991
S           2.2201828    -2.2585932    -0.0632586
C           3.6122206    -1.1370073     0.3860588
H           3.3059266    -0.1373593     0.0634964
H           3.6751308    -1.1627910     1.4781112
O           2.4876217    -3.5805531     0.5243533
O           1.9573373    -2.1108214    -1.5032269
C           7.2584161    -2.4298571    -1.5041931
H           8.1780888    -2.7568939    -1.9817065
C           6.4182478    -1.5219513    -2.1515066
H           6.6790469    -1.1430487    -3.1358039
C           5.2393775    -1.1003104    -1.5379928
H           4.5803676    -0.4028734    -2.0478207
C           4.8925850    -1.5770498    -0.2672126
C           5.7341829    -2.4972057     0.3712795
H           5.4601233    -2.8873043     1.3476391
C           6.9128614    -2.9184949    -0.2428140
H           7.5597003    -3.6299196     0.2630629
