22
042_C12H10_1-0-9-8 (-165,) energy =    -463.3041050
C           2.3903216    -1.3564936    -0.5697133
C           1.1982492    -0.8369160    -1.1075088
C           0.0847323    -1.6461464    -1.3236841
C           0.1242637    -3.0026989    -0.9994787
C           1.2924187    -3.5355586    -0.4534115
C           2.4040973    -2.7237102    -0.2367593
C           5.7823485     1.1772214     0.3076144
C           5.9349975    -0.2076479     0.2318480
C           4.8433843    -1.0223335    -0.0617477
C           3.5660514    -0.4815120    -0.2985588
C           3.4311981     0.9160180    -0.2033121
C           4.5215515     1.7332170     0.0885705
H           1.1460773     0.2069051    -1.3996666
H          -0.8158033    -1.2131655    -1.7514511
H          -0.7437510    -3.6345116    -1.1666280
H           1.3378200    -4.5871860    -0.1823798
H           3.2832779    -3.1599608     0.2258166
H           6.6326283     1.8134206     0.5375162
H           6.9096439    -0.6592207     0.3978805
H           5.0017586    -2.0927058    -0.1446208
H           2.4567014     1.3761506    -0.3292256
H           4.3802197     2.8088077     0.1561973
22
042_C12H10_1-0-9-8 (-150,) energy =    -463.3057296
C           2.3665959    -1.3458199    -0.4893529
C           2.3398489    -2.6899048    -0.0778753
C           1.2431240    -3.5057873    -0.3503254
C           0.1442249    -2.9983258    -1.0455922
C           0.1557410    -1.6675563    -1.4666418
C           1.2543069    -0.8538833    -1.1946185
C           5.7876155     1.1671721     0.2588433
C           4.5062147     1.7182846     0.2060342
C           3.4000831     0.9039077    -0.0304102
C           3.5452059    -0.4820209    -0.2166414
C           4.8435442    -1.0193065    -0.1676381
C           5.9504191    -0.2062847     0.0704405
H           3.1733645    -3.0918564     0.4908510
H           1.2447509    -4.5385550    -0.0114208
H          -0.7112072    -3.6336380    -1.2584893
H          -0.6884181    -1.2628593    -2.0189911
H           1.2617417     0.1690457    -1.5595382
H           6.6503412     1.8015859     0.4430694
H           4.3647631     2.7853743     0.3569018
H           2.4070492     1.3439945    -0.0379654
H           4.9912837    -2.0803063    -0.3466999
H           6.9438596    -0.6465213     0.0974684
22
042_C12H10_1-0-9-8 (-135,) energy =    -463.3058330
C           2.3815354    -1.3518142    -0.5363237
C           2.3002293    -2.6425123     0.0121661
C           1.1920690    -3.4535162    -0.2297614
C           0.1394926    -2.9892513    -1.0207851
C           0.2045306    -1.7062706    -1.5675554
C           1.3132193    -0.8958469    -1.3263585
C           5.7791153     1.1605822     0.2840689
C           4.4862983     1.6844687     0.3418612
C           3.3860699     0.8712501     0.0726543
C           3.5552873    -0.4817166    -0.2652053
C           4.8614522    -0.9962960    -0.3149435
C           5.9620075    -0.1838915    -0.0448349
H           3.1043839    -3.0019061     0.6486322
H           1.1465848    -4.4468798     0.2091183
H          -0.7244632    -3.6211413    -1.2083525
H          -0.6068325    -1.3371528    -2.1895735
H           1.3660190     0.0938985    -1.7720542
H           6.6364813     1.7941280     0.4948411
H           4.3323675     2.7272723     0.6070671
H           2.3817748     1.2802691     0.1432697
H           5.0128099    -2.0366477    -0.5901950
H           6.9645601    -0.6004329    -0.0982706
22
042_C12H10_1-0-9-8 (-120,) energy =    -463.3045330
C           2.3900148    -1.3577600    -0.5631574
C           2.2432724    -2.5806475     0.1101988
C           1.1279299    -3.3880544    -0.1134455
C           0.1349742    -2.9822048    -1.0070561
C           0.2636331    -1.7621449    -1.6734555
C           1.3788411    -0.9547147    -1.4493810
C           5.7760800     1.1550163     0.2991407
C           4.4786497     1.6370865     0.4821367
C           3.3815021     0.8254492     0.1931701
C           3.5613138    -0.4789908    -0.2930863
C           4.8707772    -0.9559664    -0.4604612
C           5.9685457    -0.1449938    -0.1721499
H           3.0066158    -2.8913270     0.8187726
H           1.0300863    -4.3309504     0.4184208
H          -0.7344574    -3.6107352    -1.1804198
H          -0.5043548    -1.4388085    -2.3714132
H           1.4800256    -0.0088447    -1.9752825
H           6.6309613     1.7867322     0.5252545
H           4.3195387     2.6438752     0.8597389
H           2.3728737     1.1977101     0.3523210
H           5.0237820    -1.9650286    -0.8343796
H           6.9751400    -0.5283004    -0.3182877
22
042_C12H10_1-0-9-8 (-105,) energy =    -463.3027900
C           2.3862178    -1.3588511    -0.5548885
C           2.1570439    -2.5012873     0.2262635
C           1.0423901    -3.3089180    -0.0030808
C           0.1342935    -2.9818250    -1.0116940
C           0.3460409    -1.8410590    -1.7879075
C           1.4607862    -1.0337104    -1.5576190
C           5.7789917     1.1541474     0.2956536
C           4.4908791     1.5759084     0.6300337
C           3.3911996     0.7649744     0.3463520
C           3.5606395    -0.4766215    -0.2841673
C           4.8606169    -0.8948126    -0.6046856
C           5.9610358    -0.0845019    -0.3218408
H           2.8582293    -2.7525668     1.0177765
H           0.8802233    -4.1908374     0.6113042
H          -0.7342931    -3.6103132    -1.1896755
H          -0.3569557    -1.5784260    -2.5742709
H           1.6246207    -0.1463836    -2.1635894
H           6.6354631     1.7853204     0.5174616
H           4.3412515     2.5352811     1.1186700
H           2.3900151     1.0912333     0.6155281
H           5.0042026    -1.8584990    -1.0864039
H           6.9606636    -0.4212930    -0.5842766
22
042_C12H10_1-0-9-8 (-90,) energy =    -463.3019699
C           2.3701614    -1.3512273    -0.5158780
C           2.0387656    -2.4011960     0.3525437
C           0.9339069    -3.2149725     0.0972599
C           0.1434922    -2.9904937    -1.0312023
C           0.4640256    -1.9481075    -1.9026016
C           1.5690947    -1.1349577    -1.6463993
C           5.7811292     1.1603941     0.2731935
C           4.5268000     1.4999062     0.7830860
C           3.4222114     0.6859633     0.5271886
C           3.5545408    -0.4791528    -0.2418667
C           4.8192919    -0.8104387    -0.7489797
C           5.9245046     0.0028206    -0.4936925
H           2.6530015    -2.5773771     1.2317165
H           0.6910283    -4.0245118     0.7807934
H          -0.7169032    -3.6239241    -1.2303130
H          -0.1463305    -1.7667375    -2.7835873
H           1.8173009    -0.3238780    -2.3259623
H           6.6414887     1.7939083     0.4722018
H           4.4066558     2.3996399     1.3810936
H           2.4463281     0.9519248     0.9249131
H           4.9327932    -1.7114058    -1.3461776
H           6.8978254    -0.2686673    -0.8943295
22
042_C12H10_1-0-9-8 (-75,) energy =    -463.3027839
C           2.3574779    -1.3400866    -0.4897222
C           1.9182730    -2.2857210     0.4486616
C           0.8215011    -3.1044011     0.1760212
C           0.1522523    -2.9959360    -1.0442574
C           0.5873778    -2.0663016    -1.9904992
C           1.6845111    -1.2484212    -1.7171001
C           5.7809799     1.1636188     0.2570510
C           4.5776716     1.4042610     0.9225355
C           3.4703351     0.5884714     0.6863192
C           3.5509387    -0.4860586    -0.2117558
C           4.7616763    -0.7109772    -0.8835716
C           5.8695685     0.1040413    -0.6475728
H           2.4437179    -2.3773375     1.3957002
H           0.4941535    -3.8314869     0.9147677
H          -0.7013937    -3.6337911    -1.2576613
H           0.0724478    -1.9767639    -2.9435929
H           2.0213761    -0.5244174    -2.4544141
H           6.6432719     1.7992867     0.4400854
H           4.4979019     2.2323074     1.6221883
H           2.5317739     0.7827545     1.1989017
H           4.8326927    -1.5361328    -1.5873913
H           6.8024041    -0.0893221    -1.1710082
22
042_C12H10_1-0-9-8 (-60,) energy =    -463.3045194
C           2.3590017    -1.3368185    -0.4941249
C           1.8220718    -2.1688239     0.5008592
C           0.7252898    -2.9878161     0.2321134
C           0.1526984    -2.9964962    -1.0411550
C           0.6853489    -2.1838633    -2.0437405
C           1.7824336    -1.3657724    -1.7735710
C           5.7797320     1.1647953     0.2594813
C           4.6262642     1.2999245     1.0343276
C           3.5205118     0.4837249     0.7953272
C           3.5513789    -0.4896745    -0.2156087
C           4.7117257    -0.6061805    -0.9967766
C           5.8179041     0.2094396    -0.7579019
H           2.2765033    -2.1758086     1.4882071
H           0.3240619    -3.6263026     1.0149847
H          -0.7011883    -3.6348662    -1.2517197
H           0.2448882    -2.1842822    -3.0374868
H           2.1903783    -0.7283208    -2.5536524
H           6.6409750     1.8011412     0.4448433
H           4.5830971     2.0489788     1.8208017
H           2.6182735     0.6026836     1.3896647
H           4.7477392    -1.3541110    -1.7845542
H           6.7118311     0.0964707    -1.3658785
22
042_C12H10_1-0-9-8 (-45,) energy =    -463.3058306
C           2.3698627    -1.3435345    -0.5101508
C           1.7438697    -2.0592495     0.5238514
C           0.6421741    -2.8740979     0.2658302
C           0.1460375    -2.9951186    -1.0335570
C           0.7616075    -2.2945616    -2.0725508
C           1.8625845    -1.4792374    -1.8130251
C           5.7803376     1.1649086     0.2694498
C           4.6748113     1.1955914     1.1214862
C           3.5717441     0.3807734     0.8693694
C           3.5520846    -0.4859414    -0.2360260
C           4.6690354    -0.5028393    -1.0876972
C           5.7717765     0.3126269    -0.8363622
H           2.1388953    -1.9888082     1.5337946
H           0.1765861    -3.4232403     1.0801691
H          -0.7120007    -3.6307898    -1.2349790
H           0.3797969    -2.3769106    -3.0869190
H           2.3235999    -0.9210653    -2.6234366
H           6.6400819     1.8002234     0.4646743
H           4.6663652     1.8627360     1.9795764
H           2.7051780     0.4274827     1.5235095
H           4.6790689    -1.1782710    -1.9389551
H           6.6298325     0.2766851    -1.5026121
22
042_C12H10_1-0-9-8 (-30,) energy =    -463.3057290
C           2.3802787    -1.3559500    -0.5176904
C           1.6663826    -1.9585806     0.5328764
C           0.5621669    -2.7708330     0.2803485
C           0.1399963    -2.9985554    -1.0304961
C           0.8335039    -2.4028906    -2.0853050
C           1.9364896    -1.5894998    -1.8312249
C           5.7839988     1.1683633     0.2744927
C           4.7315588     1.0976634     1.1887070
C           3.6288464     0.2850824     0.9307589
C           3.5469296    -0.4748217    -0.2492163
C           4.6195291    -0.3977310    -1.1550246
C           5.7221432     0.4156630    -0.8993856
H           1.9995756    -1.8173176     1.5569193
H           0.0350716    -3.2331161     1.1109560
H          -0.7207624    -3.6317587    -1.2276785
H           0.5088251    -2.5621993    -3.1103192
H           2.4435138    -1.1060286    -2.6612666
H           6.6436863     1.8018288     0.4754390
H           4.7641450     1.6831080     2.1039325
H           2.8050907     0.2659782     1.6383631
H           4.6029683    -1.0033436    -2.0565454
H           6.5398162     0.4522221    -1.6146047
22
042_C12H10_1-0-9-8 (-15,) energy =    -463.3041101
C           2.3843124    -1.3651286    -0.5150070
C           1.5778028    -1.8532763     0.5295855
C           0.4738654    -2.6650589     0.2763399
C           0.1330676    -3.0059042    -1.0330698
C           0.9103513    -2.5189779    -2.0845512
C           2.0128542    -1.7060964    -1.8288811
C           5.7914329     1.1754904     0.2749165
C           4.8049362     0.9955328     1.2451043
C           3.7020737     0.1835539     0.9880277
C           3.5424589    -0.4655016    -0.2502407
C           4.5576435    -0.2846695    -1.2081065
C           5.6606429     0.5279845    -0.9540778
H           1.8339826    -1.6323270     1.5605568
H          -0.1192632    -3.0352305     1.1085620
H          -0.7280329    -3.6381943    -1.2313309
H           0.6522718    -2.7620661    -3.1120396
H           2.5733779    -1.3106777    -2.6697766
H           6.6519174     1.8079248     0.4753169
H           4.8895447     1.4923675     2.2081236
H           2.9374059     0.0893026     1.7521047
H           4.5044605    -0.8064196    -2.1581785
H           6.4259542     0.6447762    -1.7170311
22
042_C12H10_1-0-9-8 (0,) energy =    -463.3026508
C           2.3714744    -1.3515783    -0.5162271
C           1.4614229    -1.7016297     0.4995340
C           0.3585944    -2.5147196     0.2470898
C           0.1239600    -3.0097197    -1.0355679
C           1.0114382    -2.6767638    -2.0587149
C           2.1131294    -1.8633674    -1.8022380
C           5.8009253     1.1796250     0.2772734
C           4.9130843     0.8472167     1.3002640
C           3.8116629     0.0337414     1.0428942
C           3.5535254    -0.4787583    -0.2428807
C           4.4639043    -0.1293078    -1.2585413
C           5.5664470     0.6839014    -1.0051408
H           1.6045888    -1.3399791     1.5114976
H          -0.3193538    -2.7607192     1.0603110
H          -0.7355402    -3.6439169    -1.2343295
H           0.8487591    -3.0509165    -3.0661820
H           2.7759451    -1.6305066    -2.6279474
H           6.6604290     1.8138431     0.4759685
H           5.0752072     1.2216342     2.3077289
H           3.1480509    -0.1983261     1.8681878
H           4.3216889    -0.4917732    -2.2703391
H           6.2448087     0.9296488    -1.8180803
22
042_C12H10_1-0-9-8 (15,) energy =    -463.3041095
C           2.3638119    -1.3351313    -0.5232227
C           1.3659302    -1.5399630     0.4474310
C           0.2639897    -2.3547088     0.1951763
C           0.1307126    -3.0016610    -1.0338724
C           1.1174597    -2.8252536    -2.0044776
C           2.2191291    -2.0112350    -1.7490592
C           5.7937650     1.1714469     0.2760430
C           5.0147323     0.6852915     1.3265737
C           3.9140548    -0.1297880     1.0698724
C           3.5627960    -0.4957759    -0.2425974
C           4.3514040     0.0203557    -1.2878196
C           5.4535809     0.8343137    -1.0344712
H           1.4243198    -1.0262839     1.4014297
H          -0.4949447    -2.4799939     0.9631288
H          -0.7278419    -3.6377737    -1.2308592
H           1.0378915    -3.3325205    -2.9624986
H           2.9895811    -1.9259793    -2.5084912
H           6.6515651     1.8077426     0.4756639
H           5.2651098     0.9372359     2.3538357
H           3.3473947    -0.5168571     1.9103808
H           4.0882924    -0.1912928    -2.3191069
H           6.0402058     1.2152517    -1.8664778
22
042_C12H10_1-0-9-8 (30,) energy =    -463.3057285
C           2.3714005    -1.3426216    -0.5215783
C           1.3073523    -1.4283262     0.3932415
C           0.2043905    -2.2427253     0.1420767
C           0.1388857    -2.9970743    -1.0305392
C           1.1895958    -2.9288282    -1.9469571
C           2.2926514    -2.1153136    -1.6935748
C           5.7849718     1.1672067     0.2749862
C           5.0887077     0.5695287     1.3268649
C           3.9876938    -0.2456713     1.0698134
C           3.5562773    -0.4883586    -0.2459810
C           4.2640217     0.1279732    -1.2929585
C           5.3661982     0.9419851    -1.0373811
H           1.3276752    -0.8245435     1.2958229
H          -0.6092443    -2.2815179     0.8617677
H          -0.7205781    -3.6321988    -1.2271899
H           1.1569157    -3.5198225    -2.8586039
H           3.1169014    -2.1006377    -2.4008005
H           6.6432574     1.8026253     0.4757980
H           5.4077240     0.7317061     2.3531956
H           3.4769681    -0.7272832     1.8985882
H           3.9303305    -0.0090939    -2.3174625
H           5.8917255     1.4101984    -1.8656730
22
042_C12H10_1-0-9-8 (45,) energy =    -463.3058305
C           2.3762466    -1.3529957    -0.5077571
C           1.2511150    -1.3309926     0.3330175
C           0.1483897    -2.1443823     0.0748910
C           0.1459061    -2.9932014    -1.0335996
C           1.2544940    -3.0217356    -1.8818073
C           2.3568659    -2.2084864    -1.6217281
C           5.7806836     1.1624065     0.2695037
C           5.1681948     0.4653630     1.3126848
C           4.0637044    -0.3474817     1.0605352
C           3.5452333    -0.4759279    -0.2387165
C           4.1748545     0.2274111    -1.2789818
C           5.2800148     1.0397077    -1.0279897
H           1.2367223    -0.6555132     1.1842067
H          -0.7141089    -2.1076035     0.7353744
H          -0.7136677    -3.6265946    -1.2355795
H           1.2647685    -3.6834515    -2.7440961
H           3.2247241    -2.2508824    -2.2743395
H           6.6420015     1.7952069     0.4658538
H           5.5568856     0.5464465     2.3245247
H           3.6064938    -0.9055600     1.8732790
H           3.7777107     0.1527372    -2.2877512
H           5.7460395     1.5828587    -1.8461029
22
042_C12H10_1-0-9-8 (60,) energy =    -463.3045198
C           2.3743670    -1.3585020    -0.4895017
C           1.1911594    -1.2347718     0.2555500
C           0.0897790    -2.0471166    -0.0146216
C           0.1487976    -2.9908131    -1.0418096
C           1.3155533    -3.1147603    -1.7984853
C           2.4163943    -2.3017799    -1.5280933
C           5.7823248     1.1584959     0.2614562
C           5.2614502     0.3592498     1.2807769
C           4.1517664    -0.4505723     1.0385672
C           3.5373988    -0.4677028    -0.2234402
C           4.0786303     0.3301758    -1.2436522
C           5.1879953     1.1405045    -1.0017574
H           1.1369595    -0.4900246     1.0453946
H          -0.8186430    -1.9360687     0.5718451
H          -0.7093956    -3.6231508    -1.2531573
H           1.3705191    -3.8474883    -2.5994912
H           3.3261516    -2.4059156    -2.1135730
H           6.6473987     1.7888537     0.4493392
H           5.7251268     0.3585566     2.2638906
H           3.7577442    -1.0839066     1.8292038
H           3.6130619     0.3240846    -2.2257577
H           5.5867994     1.7604450    -1.8005941
22
042_C12H10_1-0-9-8 (75,) energy =    -463.3027839
C           2.3695608    -1.3577305    -0.4848065
C           1.1372138    -1.1330207     0.1463942
C           0.0366353    -1.9460081    -0.1280558
C           0.1489683    -2.9917270    -1.0459437
C           1.3673113    -3.2178218    -1.6889433
C           2.4670970    -2.4040021    -1.4141414
C           5.7843400     1.1592373     0.2577664
C           5.3621995     0.2465862     1.2260311
C           4.2510744    -0.5636567     0.9884577
C           3.5389649    -0.4681646    -0.2162877
C           3.9795722     0.4440411    -1.1866413
C           5.0902542     1.2549551    -0.9497161
H           1.0454064    -0.3139165     0.8549262
H          -0.9106395    -1.7578229     0.3707468
H          -0.7079798    -3.6246403    -1.2608427
H           1.4628158    -4.0290469    -2.4061230
H           3.4151329    -2.5822742    -1.9148679
H           6.6501250     1.7898496     0.4417918
H           5.9020205     0.1597623     2.1654978
H           3.9290789    -1.2797692     1.7400473
H           3.4397470     0.5207723    -2.1268495
H           5.4133296     1.9619900    -1.7095022
22
042_C12H10_1-0-9-8 (90,) energy =    -463.3019881
C           2.3708459    -1.3521986    -0.5155196
C           1.1055322    -1.0231969    -0.0084644
C           0.0020312    -1.8389661    -0.2633227
C           0.1476855    -2.9966284    -1.0295865
C           1.4026582    -3.3338894    -1.5394128
C           2.5055100    -2.5174794    -1.2839815
C           5.7771480     1.1661709     0.2715854
C           5.4588139     0.1237775     1.1437325
C           4.3552149    -0.6916417     0.8882199
C           3.5535599    -0.4776374    -0.2422503
C           3.8827087     0.5724130    -1.1114698
C           4.9860669     1.3884114    -0.8568782
H           0.9901798    -0.1222015     0.5883449
H          -0.9718062    -1.5692955     0.1372775
H          -0.7113933    -3.6320024    -1.2281913
H           1.5245821    -4.2336690    -2.1369930
H           3.4819342    -2.7815619    -1.6816263
H           6.6363703     1.8013822     0.4700851
H           6.0697037    -0.0559090     2.0246953
H           4.1087198    -1.5027756     1.5683445
H           3.2678869     0.7468503    -1.9905807
H           5.2272871     2.1980168    -1.5409227
22
042_C12H10_1-0-9-8 (105,) energy =    -463.3027900
C           2.3796814    -1.3491423    -0.5574224
C           1.0932700    -0.9309860    -0.1857059
C          -0.0147934    -1.7483392    -0.4125966
C           0.1472366    -3.0010414    -1.0070516
C           1.4240506    -3.4324497    -1.3708133
C           2.5316780    -2.6146179    -1.1431646
C           5.7654681     1.1742951     0.2903254
C           5.5473371     0.0164716     1.0391724
C           4.4549219    -0.8051851     0.7582535
C           3.5680803    -0.4875621    -0.2811963
C           3.7909594     0.6844618    -1.0189105
C           4.8832956     1.5067248    -0.7392195
H           0.9663046     0.0402596     0.2853102
H          -1.0045465    -1.4084284    -0.1186571
H          -0.7155464    -3.6380451    -1.1829797
H           1.5591440    -4.4070542    -1.8328087
H           3.5249417    -2.9518506    -1.4279430
H           6.6156708     1.8147667     0.5095759
H           6.2247049    -0.2451478     1.8480514
H           4.2817613    -1.7014579     1.3481471
H           3.1057196     0.9444538    -1.8215408
H           5.0449184     2.4072039    -1.3262206
22
042_C12H10_1-0-9-8 (120,) energy =    -463.3045331
C           2.3840746    -1.3480727    -0.5653214
C           1.0840904    -0.8696637    -0.3383567
C          -0.0252413    -1.6860751    -0.5592864
C           0.1462308    -2.9990431    -1.0018908
C           1.4347015    -3.4906889    -1.2193888
C           2.5435856    -2.6738775    -0.9978945
C           5.7642260     1.1717318     0.2953069
C           5.6301920    -0.0651804     0.9287523
C           4.5390480    -0.8854588     0.6416262
C           3.5680765    -0.4879630    -0.2908945
C           3.7073475     0.7634090    -0.9114429
C           4.7985241     1.5838103    -0.6249109
H           0.9482541     0.1466700     0.0220351
H          -1.0242332    -1.2987675    -0.3761920
H          -0.7178677    -3.6355064    -1.1729569
H           1.5774561    -4.5114329    -1.5646547
H           3.5451619    -3.0570619    -1.1753046
H           6.6136097     1.8114378     0.5196554
H           6.3712016    -0.3887629     1.6551934
H           4.4283735    -1.8405677     1.1483950
H           2.9610144     1.0835740    -1.6339182
H           4.8956009     2.5449939    -1.1231065
22
042_C12H10_1-0-9-8 (135,) energy =    -463.3058331
C           2.3797532    -1.3489673    -0.5371847
C           1.0750626    -0.8336762    -0.4624522
C          -0.0304738    -1.6485719    -0.7033347
C           0.1448521    -2.9972327    -1.0188629
C           1.4357280    -3.5241814    -1.0909144
C           2.5409820    -2.7086986    -0.8509837
C           5.7739550     1.1683094     0.2820669
C           5.7088645    -0.1203414     0.8152602
C           4.6107481    -0.9366227     0.5467077
C           3.5570694    -0.4841318    -0.2646759
C           3.6339061     0.8162603    -0.7903988
C           4.7311988     1.6334321    -0.5214125
H           0.9294373     0.2091573    -0.1937555
H          -1.0316226    -1.2309270    -0.6345271
H          -0.7169201    -3.6323452    -1.2055837
H           1.5837476    -4.5714679    -1.3414203
H           3.5434239    -3.1210713    -0.9289190
H           6.6291622     1.8050428     0.4919974
H           6.5104122    -0.4884383     1.4504800
H           4.5558426    -1.9295090     0.9849409
H           2.8358415     1.1778751    -1.4333141
H           4.7747339     2.6330075    -0.9461740
22
042_C12H10_1-0-9-8 (150,) energy =    -463.3057292
C           2.3681207    -1.3478443    -0.4887069
C           1.0697210    -0.8147482    -0.5696026
C          -0.0282733    -1.6287222    -0.8426911
C           0.1444763    -2.9989243    -1.0456474
C           1.4273070    -3.5444873    -0.9744658
C           2.5243066    -2.7285162    -0.7029667
C           5.7890813     1.1651283     0.2592655
C           5.7777411    -0.1598418     0.6984162
C           4.6687926    -0.9701076     0.4610439
C           3.5413318    -0.4760813    -0.2181116
C           3.5723320     0.8582594    -0.6601276
C           4.6801413     1.6699258    -0.4217638
H           0.9137173     0.2440056    -0.3839516
H          -1.0223331    -1.1915361    -0.8892950
H          -0.7109565    -3.6342184    -1.2586274
H           1.5777123    -4.6078891    -1.1418530
H           3.5193352    -3.1635233    -0.6854906
H           6.6535803     1.7969312     0.4441710
H           6.6323515    -0.5636933     1.2350528
H           4.6639724    -1.9894794     0.8361951
H           2.7322000     1.2560809    -1.2218460
H           4.6804931     2.6963314    -0.7794705
22
042_C12H10_1-0-9-8 (165,) energy =    -463.3041050
C           2.3575793    -1.3483163    -0.4541329
C           1.0802346    -0.8074427    -0.6909187
C          -0.0113463    -1.6221514    -0.9845281
C           0.1414892    -3.0070010    -1.0602862
C           1.4022817    -3.5629961    -0.8412271
C           2.4926421    -2.7458237    -0.5493208
C           5.7995486     1.1729257     0.2468981
C           5.8389163    -0.1836527     0.5710131
C           4.7253804    -0.9928636     0.3548044
C           3.5333031    -0.4733333    -0.1829570
C           3.5197365     0.8939066    -0.5158516
C           4.6313977     1.7057841    -0.2991842
H           0.9218076     0.2629151    -0.6079981
H          -0.9860273    -1.1706528    -1.1505629
H          -0.7087502    -3.6432530    -1.2901824
H           1.5436221    -4.6385836    -0.9088586
H           3.4671781    -3.2058890    -0.4233481
H           6.6675983     1.8046871     0.4140727
H           6.7394183    -0.6167087     0.9987736
H           4.7775325    -2.0367081     0.6468937
H           2.6406228     1.3302183    -0.9784653
H           4.5860011     2.7574160    -0.5702061
22
042_C12H10_1-0-9-8 (180,) energy =    -463.3026511
C           2.3713242    -1.3520263    -0.5126786
C           1.1294477    -0.8150724    -0.9024849
C           0.0274586    -1.6286101    -1.1571189
C           0.1261617    -3.0141283    -1.0311433
C           1.3462633    -3.5694798    -0.6461936
C           2.4461911    -2.7528940    -0.3923640
C           5.7975282     1.1842377     0.2784551
C           5.8963697    -0.2012660     0.4044867
C           4.7942816    -1.0146631     0.1498274
C           3.5524097    -0.4777102    -0.2399775
C           3.4776072     0.9231648    -0.3602607
C           4.5775005     1.7397978    -0.1064529
H           1.0062835     0.2563411    -1.0131608
H          -0.9131033    -1.1730123    -1.4557940
H          -0.7324237    -3.6497229    -1.2294207
H           1.4472382    -4.6466314    -0.5413954
H           3.3742111    -3.2284650    -0.0957904
H           6.6561228     1.8198110     0.4767424
H           6.8369246    -0.6568813     0.7031730
H           4.9173756    -2.0860815     0.2605043
H           2.5495794     1.3987422    -0.6567860
H           4.4765941     2.8169584    -0.2112661
