20
419_C6H8N4O2_0-1-7-8 (-165,) energy =    -602.9323099
C           3.4577334     1.3687478     1.0870071
C           3.3738670    -0.0186775     0.8889732
C           2.4956130     2.5014887     1.2188422
O           2.8771071     3.6688969     1.1353310
N           1.1987627     2.1857578     1.4870421
H           0.5453804     2.9563741     1.5119005
H           0.8437527     1.2382027     1.4182710
C           2.2450917    -0.9244844     0.5203473
O           2.3077492    -2.1321022     0.6526124
N           1.0940541    -0.3134232     0.0074387
H           0.4520802    -0.9986228    -0.3790033
H           1.2372392     0.4874754    -0.5992081
N           4.6200843    -0.5859322     0.9583249
C           5.4395571     0.4103847     1.1987630
H           6.5121205     0.3257200     1.3186942
N           4.8082802     1.6132751     1.2850666
C           5.4869935     2.8783746     1.5674014
H           5.3906481     3.5616899     0.7239109
H           6.5393932     2.6496754     1.7516260
H           5.0536834     3.3577809     2.4456514
20
419_C6H8N4O2_0-1-7-8 (-150,) energy =    -602.9335104
C           3.4566752     1.4635586     1.1297395
C           3.4416988     0.0777135     0.9144457
C           2.4355910     2.5383628     1.2912923
O           2.7667105     3.7239169     1.3328338
N           1.1395441     2.1495474     1.4364431
H           0.4574209     2.8938032     1.4793179
H           0.8293864     1.2030894     1.2414199
C           2.3356331    -0.8857005     0.6313946
O           2.3740493    -2.0506793     0.9779701
N           1.2301521    -0.3653746    -0.0506789
H           0.5986350    -1.0940486    -0.3683173
H           1.4202461     0.3440350    -0.7509744
N           4.7134799    -0.4298983     0.9515643
C           5.4876730     0.6063705     1.1811592
H           6.5660677     0.5747036     1.2700974
N           4.7992891     1.7733430     1.3002940
C           5.4221431     3.0646194     1.5938115
H           5.2455132     3.7691172     0.7814380
H           6.4936624     2.8885265     1.7158846
H           5.0087158     3.4897322     2.5085985
20
419_C6H8N4O2_0-1-7-8 (-135,) energy =    -602.9338920
C           3.4460251     1.4644797     1.1727006
C           3.4175905     0.0878460     0.9187050
C           2.4280265     2.5293693     1.3958351
O           2.7669469     3.6925998     1.6188293
N           1.1209382     2.1545772     1.3723934
H           0.4446820     2.8957792     1.4886127
H           0.8145188     1.2386026     1.0600673
C           2.2813285    -0.8642496     0.7189634
O           2.2336524    -1.9560496     1.2508917
N           1.2478923    -0.4009806    -0.1012557
H           0.5875277    -1.1302382    -0.3521374
H           1.5149641     0.1998017    -0.8741363
N           4.6848977    -0.4298924     0.9009846
C           5.4733915     0.5984139     1.1268489
H           6.5542691     0.5596837     1.1711601
N           4.7965049     1.7635108     1.3048649
C           5.4367873     3.0446464     1.6048595
H           5.1875452     3.7845903     0.8445800
H           6.5157927     2.8723491     1.6233309
H           5.1014687     3.4235565     2.5702897
20
419_C6H8N4O2_0-1-7-8 (-120,) energy =    -602.9335732
C           3.4403485     1.5077928     1.1903592
C           3.4362148     0.1441698     0.8886520
C           2.3932119     2.5296071     1.4597082
O           2.6914301     3.6619011     1.8422930
N           1.1005448     2.1466261     1.2793545
H           0.3962481     2.8478488     1.4581362
H           0.8352432     1.2582388     0.8669244
C           2.2975314    -0.8215483     0.7543321
O           2.1837881    -1.8122959     1.4484207
N           1.3349275    -0.4659143    -0.1918930
H           0.6675078    -1.2051393    -0.3892813
H           1.6605374     0.0369705    -1.0103900
N           4.7124308    -0.3459654     0.8211341
C           5.4844780     0.6942701     1.0590165
H           6.5667825     0.6797135     1.0687318
N           4.7864726     1.8351282     1.2976094
C           5.3977737     3.1239583     1.6214956
H           5.0757229     3.8880622     0.9138655
H           6.4815072     2.9948859     1.5656351
H           5.1079127     3.4441185     2.6222343
20
419_C6H8N4O2_0-1-7-8 (-105,) energy =    -602.9327146
C           3.4717433     1.5276164     1.2234222
C           3.4554356     0.1806994     0.8701323
C           2.4214466     2.5311930     1.5284390
O           2.7002635     3.6241501     2.0224072
N           1.1405817     2.1719155     1.2377693
H           0.4200089     2.8427158     1.4620045
H           0.8971952     1.3198182     0.7454993
C           2.2920063    -0.7671555     0.7868757
O           2.0756159    -1.6278519     1.6169310
N           1.4248398    -0.5211981    -0.2729486
H           0.7376011    -1.2514429    -0.4309287
H           1.8196437    -0.1135102    -1.1128513
N           4.7268226    -0.3080278     0.7384682
C           5.5087828     0.7240933     0.9900598
H           6.5907526     0.7086032     0.9638573
N           4.8200158     1.8536502     1.2963225
C           5.4314532     3.1351882     1.6446207
H           5.0747194     3.9216720     0.9786981
H           6.5135122     3.0225939     1.5421398
H           5.1761560     3.4138905     2.6670108
20
419_C6H8N4O2_0-1-7-8 (-90,) energy =    -602.9348035
C           3.4303747     1.5437874     1.2159694
C           3.3360531     0.1839491     0.9604222
C           2.4043734     2.5738657     1.4923471
O           2.6488137     3.7784371     1.4347186
N           1.1691022     2.0794358     1.7986514
H           0.4565835     2.7544273     2.0384105
H           1.0243640     1.1093832     2.0547389
C           2.0931455    -0.6039114     0.6458102
O           1.4017316    -1.1319978     1.5115606
N           1.8269403    -0.7147859    -0.6845560
H           1.0975432    -1.3574146    -0.9654385
H           2.5133055    -0.4385584    -1.3713916
N           4.5790466    -0.3722618     0.8111878
C           5.4178935     0.6270769     1.0222127
H           6.4974219     0.5497442     1.0072548
N           4.7900708     1.8075344     1.2645198
C           5.4468595     3.0829512     1.5405265
H           5.1633086     3.8240473     0.7932383
H           6.5261436     2.9154820     1.5196244
H           5.1518559     3.4579674     2.5224537
20
419_C6H8N4O2_0-1-7-8 (-75,) energy =    -602.9400469
C           3.4065743     1.5933264     1.2435207
C           3.2791768     0.2447916     0.9383364
C           2.4133374     2.6321594     1.6137123
O           2.7031207     3.8290410     1.6322298
N           1.1771032     2.1566936     1.9211653
H           0.4757857     2.8342325     2.1838874
H           0.9775930     1.1637623     2.0144553
C           2.0313013    -0.4936547     0.5569715
O           1.1556306    -0.8005073     1.3659513
N           1.9945757    -0.8703604    -0.7503544
H           1.2881966    -1.5448410    -1.0155679
H           2.8437378    -0.8330848    -1.2970671
N           4.5085587    -0.3105578     0.6810518
C           5.3699742     0.6649334     0.9035450
H           6.4465114     0.5779282     0.8326571
N           4.7690203     1.8374960     1.2385077
C           5.4606564     3.0891346     1.5415146
H           5.1603624     3.8666444     0.8393698
H           6.5346016     2.9030417     1.4671433
H           5.2122015     3.4257032     2.5493684
20
419_C6H8N4O2_0-1-7-8 (-60,) energy =    -602.9460803
C           3.3899679     1.6141006     1.2724669
C           3.2410914     0.2828197     0.8963038
C           2.4287342     2.6609801     1.7148764
O           2.7646110     3.8443224     1.7944145
N           1.1885123     2.2101552     2.0232887
H           0.5026154     2.9006191     2.2929642
H           0.9351113     1.2226953     1.9729874
C           1.9924176    -0.4357822     0.5014417
O           1.0122013    -0.5566244     1.2417215
N           2.0695478    -1.0298028    -0.7197079
H           1.3546589    -1.7089161    -0.9456631
H           2.9815037    -1.1336367    -1.1447741
N           4.4607375    -0.2621226     0.5697792
C           5.3359008     0.6915538     0.8189018
H           6.4091918     0.6032726     0.7110591
N           4.7532726     1.8470199     1.2373664
C           5.4717210     3.0737450     1.5812891
H           5.1696926     3.8866790     0.9216637
H           6.5403107     2.8726648     1.4746518
H           5.2496379     3.3681657     2.6078597
20
419_C6H8N4O2_0-1-7-8 (-45,) energy =    -602.9511613
C           3.3952943     1.6379922     1.2368364
C           3.2510955     0.3291407     0.7799352
C           2.4466857     2.6755382     1.7359434
O           2.8144119     3.8413508     1.8996336
N           1.1935218     2.2399579     1.9969069
H           0.5219298     2.9323127     2.2964146
H           0.9123580     1.2685281     1.8416565
C           2.0151215    -0.4108341     0.3974569
O           0.9708569    -0.3980940     1.0588140
N           2.1642943    -1.1734653    -0.7172676
H           1.4447760    -1.8565496    -0.9110566
H           3.1020186    -1.3386228    -1.0596432
N           4.4725528    -0.1899846     0.4187478
C           5.3434140     0.7538105     0.7076685
H           6.4158288     0.6798916     0.5824021
N           4.7576112     1.8797616     1.1969590
C           5.4819047     3.0872387     1.5955066
H           5.1786220     3.9323789     0.9785497
H           6.5488171     2.8869765     1.4707370
H           5.2676595     3.3321315     2.6361967
20
419_C6H8N4O2_0-1-7-8 (-30,) energy =    -602.9546474
C           3.3835507     1.6543334     1.2295707
C           3.2387342     0.3727098     0.6953931
C           2.4482834     2.6797231     1.7841230
O           2.8466616     3.8201894     2.0350993
N           1.1803897     2.2654296     1.9925172
H           0.5240982     2.9580049     2.3239393
H           0.8732458     1.3214905     1.7378709
C           2.0129359    -0.3940013     0.3419923
O           0.9226007    -0.2701472     0.9135985
N           2.2112044    -1.2982165    -0.6503825
H           1.4807702    -1.9741665    -0.8226071
H           3.1600591    -1.4968859    -0.9396703
N           4.4600236    -0.1254540     0.3054778
C           5.3296453     0.8054332     0.6300492
H           6.4005818     0.7422424     0.4879952
N           4.7453372     1.9016198     1.1849378
C           5.4788299     3.0857607     1.6354663
H           5.1731473     3.9620931     1.0651462
H           6.5431380     2.8865793     1.4878099
H           5.2772146     3.2793241     2.6890298
20
419_C6H8N4O2_0-1-7-8 (-15,) energy =    -602.9565488
C           3.3803989     1.6676596     1.2187777
C           3.2254981     0.4148565     0.6196078
C           2.4630542     2.6784111     1.8316903
O           2.8948624     3.7787842     2.1865604
N           1.1760157     2.2997908     1.9697475
H           0.5389236     2.9856494     2.3490752
H           0.8443124     1.3914609     1.6277754
C           2.0057749    -0.3790620     0.3096671
O           0.8828743    -0.1567434     0.7811112
N           2.2379836    -1.4095511    -0.5392428
H           1.4908411    -2.0661538    -0.7096373
H           3.1899328    -1.6281440    -0.8008651
N           4.4423836    -0.0713103     0.2023714
C           5.3178685     0.8434128     0.5525677
H           6.3864385     0.7876237     0.3910525
N           4.7430462     1.9138131     1.1643071
C           5.4912449     3.0734654     1.6538289
H           5.1759415     3.9773328     1.1339132
H           6.5506868     2.8782267     1.4696197
H           5.3156738     3.2168467     2.7196520
20
419_C6H8N4O2_0-1-7-8 (0,) energy =    -602.9571127
C           3.3739112     1.6561902     1.2054466
C           3.2036682     0.4325313     0.5513465
C           2.4755234     2.6428111     1.8841919
O           2.9428066     3.6696784     2.3849397
N           1.1639884     2.3320921     1.9038896
H           0.5487923     2.9894072     2.3615870
H           0.8100506     1.4674258     1.4798974
C           1.9853571    -0.3787165     0.2820790
O           0.8378011    -0.0658126     0.6264560
N           2.2436477    -1.5246058    -0.3907289
H           1.4748277    -2.1350568    -0.6221774
H           3.1925303    -1.7450077    -0.6600433
N           4.4133544    -0.0462319     0.1058911
C           5.2972440     0.8527885     0.4738244
H           6.3620536     0.8023072     0.2876950
N           4.7370324     1.8994943     1.1376337
C           5.5004603     3.0359350     1.6574818
H           5.1497138     3.9661182     1.2120007
H           6.5496200     2.8656437     1.4027917
H           5.3820777     3.1121268     2.7378728
20
419_C6H8N4O2_0-1-7-8 (15,) energy =    -602.9565476
C           3.3778924     1.6742338     1.2143651
C           3.2155558     0.4819429     0.5040530
C           2.4721361     2.6077827     1.9538718
O           2.9401768     3.5465274     2.6041579
N           1.1513210     2.3568620     1.8464007
H           0.5313612     2.9551534     2.3735739
H           0.8005242     1.5402893     1.3342953
C           2.0126420    -0.3611998     0.2669264
O           0.8466508     0.0054569     0.4636552
N           2.3072060    -1.5920486    -0.2172770
H           1.5460432    -2.1857183    -0.5114315
H           3.2611780    -1.8053657    -0.4757182
N           4.4290406     0.0307456     0.0401922
C           5.3042900     0.9277295     0.4341619
H           6.3672473     0.9021173     0.2328891
N           4.7366323     1.9379308     1.1466820
C           5.4860577     3.0660912     1.7032941
H           5.0876060     4.0086887     1.3290750
H           6.5278068     2.9485521     1.3944167
H           5.4110790     3.0741891     2.7900803
20
419_C6H8N4O2_0-1-7-8 (30,) energy =    -602.9546478
C           3.3807311     1.6721402     1.1954277
C           3.2025950     0.5208865     0.4265691
C           2.4794625     2.5666946     1.9834884
O           2.9488860     3.4319359     2.7273301
N           1.1558248     2.3662489     1.8084457
H           0.5326706     2.9276590     2.3712687
H           0.7995961     1.6090815     1.2167916
C           2.0017297    -0.3378966     0.2365612
O           0.8354256     0.0709480     0.2944473
N           2.3034531    -1.6267709    -0.0627956
H           1.5521042    -2.2230736    -0.3790648
H           3.2609716    -1.8569213    -0.2945267
N           4.4091944     0.0804944    -0.0654913
C           5.2922735     0.9595255     0.3538669
H           6.3516802     0.9422830     0.1336956
N           4.7379180     1.9371741     1.1205237
C           5.4917289     3.0400746     1.7191673
H           5.0814188     3.9979414     1.3994127
H           6.5282513     2.9463352     1.3859050
H           5.4358017     2.9929941     2.8060712
20
419_C6H8N4O2_0-1-7-8 (45,) energy =    -602.9511616
C           3.3857956     1.6745407     1.1786805
C           3.1939901     0.5718277     0.3482143
C           2.4791302     2.5248543     2.0036885
O           2.9356786     3.3312502     2.8175509
N           1.1569419     2.3517275     1.7794557
H           0.5216607     2.8818820     2.3586825
H           0.8054278     1.6611002     1.1113553
C           1.9973170    -0.3034781     0.1961568
O           0.8392833     0.1189289     0.1036052
N           2.3036280    -1.6226381     0.0867404
H           1.5709838    -2.2448701    -0.2261367
H           3.2682204    -1.8756492    -0.0843235
N           4.3944722     0.1495518    -0.1737099
C           5.2833172     1.0104294     0.2751623
H           6.3393891     1.0052449     0.0386891
N           4.7405439     1.9472838     1.0985810
C           5.4941788     3.0219943     1.7453831
H           5.0752677     3.9926659     1.4787642
H           6.5281727     2.9532332     1.3987865
H           5.4484715     2.9186070     2.8289870
20
419_C6H8N4O2_0-1-7-8 (60,) energy =    -602.9460803
C           3.3686165     1.6911819     1.1411187
C           3.1512441     0.6433608     0.2518640
C           2.4640362     2.4977382     2.0053172
O           2.9118193     3.2429038     2.8791893
N           1.1414926     2.3522654     1.7479618
H           0.4997023     2.8592202     2.3404314
H           0.7901817     1.7474811     1.0045729
C           1.9480621    -0.2331173     0.1268750
O           0.8183167     0.1923670    -0.1301796
N           2.2286243    -1.5601019     0.2289431
H           1.5078339    -2.2055784    -0.0662499
H           3.1941348    -1.8523317     0.1546629
N           4.3392140     0.2362409    -0.3085732
C           5.2424306     1.0692392     0.1687116
H           6.2938185     1.0707681    -0.0881131
N           4.7221436     1.9632970     1.0516744
C           5.4849230     3.0016778     1.7439415
H           5.0726204     3.9868265     1.5218021
H           6.5180551     2.9429283     1.3934072
H           5.4394459     2.8493778     2.8218656
20
419_C6H8N4O2_0-1-7-8 (75,) energy =    -602.9400468
C           3.3887256     1.6577121     1.1351675
C           3.1739168     0.6627533     0.1908398
C           2.4685979     2.3961445     2.0356273
O           2.8870161     3.0927316     2.9611177
N           1.1471788     2.2366494     1.7575037
H           0.4904934     2.7296111     2.3454606
H           0.8148696     1.7556477     0.9252499
C           1.9660576    -0.2130207     0.0421339
O           0.8995833     0.1833283    -0.4278781
N           2.1821857    -1.5099034     0.3938571
H           1.4789858    -2.1842864     0.1200920
H           3.1313942    -1.8359186     0.5124851
N           4.3543570     0.3091241    -0.4153599
C           5.2529589     1.1300931     0.0962251
H           6.2992664     1.1640040    -0.1787770
N           4.7359766     1.9609189     1.0399462
C           5.4851434     2.9752146     1.7793423
H           5.0563748     3.9638987     1.6078190
H           6.5178210     2.9522445     1.4235665
H           5.4471853     2.7686807     2.8487402
20
419_C6H8N4O2_0-1-7-8 (90,) energy =    -602.9348036
C           3.4122389     1.6114467     1.1021713
C           3.2167801     0.6559746     0.1161390
C           2.4806135     2.2623755     2.0500659
O           2.8737089     2.8927252     3.0309846
N           1.1581659     2.0925712     1.7560250
H           0.4956197     2.5627301     2.3566568
H           0.8444698     1.7662367     0.8490282
C           1.9927823    -0.1901649    -0.1082777
O           1.0651715     0.1587572    -0.8323365
N           2.0239291    -1.3931931     0.5279643
H           1.3059161    -2.0667300     0.2940992
H           2.8761365    -1.7287210     0.9525942
N           4.3857160     0.3936902    -0.5482464
C           5.2678800     1.2147539    -0.0055480
H           6.3055124     1.3002453    -0.3015042
N           4.7469555     1.9694851     0.9971316
C           5.4713418     2.9694830     1.7778466
H           5.0081549     3.9512287     1.6617468
H           6.4993281     3.0017574     1.4096920
H           5.4552337     2.7078756     2.8358490
20
419_C6H8N4O2_0-1-7-8 (105,) energy =    -602.9327148
C           3.4469328     1.6150686     1.0759703
C           3.3509173     0.5952286     0.1325620
C           2.4819757     2.2719115     1.9928699
O           2.7698906     3.3056478     2.5968487
N           1.2662022     1.6719901     2.1203380
H           0.5995704     2.1243091     2.7290311
H           1.0419123     0.7717590     1.7117780
C           2.1324856    -0.1338671    -0.3601612
O           1.6326728     0.0678785    -1.4492389
N           1.5638317    -0.9974956     0.5706882
H           0.8484662    -1.6102975     0.1922204
H           2.1844703    -1.4276219     1.2469378
N           4.5516606     0.3873753    -0.4899895
C           5.3732591     1.2526563     0.0724243
H           6.4232289     1.3624341    -0.1665156
N           4.7725346     2.0254021     1.0137446
C           5.4372129     3.0829225     1.7736043
H           4.9913136     4.0517593     1.5485366
H           6.4928600     3.0775883     1.4914482
H           5.3376679     2.9034498     2.8446574
20
419_C6H8N4O2_0-1-7-8 (120,) energy =    -602.9335737
C           3.4207398     1.5736226     1.0823456
C           3.3233264     0.5892739     0.0964427
C           2.4688875     2.2106830     2.0316279
O           2.8047922     3.1760394     2.7191516
N           1.2149000     1.6867570     2.0882294
H           0.5764094     2.1219663     2.7383109
H           0.9457167     0.8327552     1.6108348
C           2.1386477    -0.1894053    -0.3908535
O           1.7525015    -0.1585889    -1.5424944
N           1.4658707    -0.9120703     0.5956996
H           0.7779058    -1.5605944     0.2255800
H           2.0263487    -1.2813414     1.3561832
N           4.5141168     0.4353239    -0.5606108
C           5.3300568     1.2922641     0.0179771
H           6.3721644     1.4335137    -0.2384386
N           4.7368126     2.0127457     1.0051537
C           5.4075188     3.0534326     1.7841226
H           4.9389387     4.0222639     1.6113759
H           6.4526275     3.0776175     1.4656594
H           5.3467582     2.8319819     2.8497397
20
419_C6H8N4O2_0-1-7-8 (135,) energy =    -602.9338921
C           3.4262589     1.5348089     1.0533419
C           3.2909698     0.5803459     0.0378938
C           2.5196347     2.1613650     2.0561162
O           2.9363734     3.0152421     2.8402839
N           1.2165626     1.7722937     2.0447585
H           0.6257212     2.1799402     2.7553497
H           0.8811485     0.9806792     1.5050399
C           2.1236675    -0.2436530    -0.4047167
O           1.8260304    -0.3923388    -1.5737163
N           1.3662210    -0.8119669     0.6241890
H           0.6972505    -1.4976914     0.2878900
H           1.8715447    -1.0994317     1.4558262
N           4.4577333     0.4508831    -0.6666162
C           5.2922098     1.2927763    -0.0964951
H           6.3222421     1.4482217    -0.3908297
N           4.7375495     1.9794385     0.9370114
C           5.4423128     2.9997649     1.7138678
H           4.9447804     3.9649086     1.6188977
H           6.4602610     3.0618292     1.3211714
H           5.4628160     2.7308190     2.7697633
20
419_C6H8N4O2_0-1-7-8 (150,) energy =    -602.9335106
C           3.4461796     1.4998387     1.0719448
C           3.3139303     0.5744441     0.0262801
C           2.5513311     2.0808126     2.1140721
O           3.0045769     2.7946150     3.0095676
N           1.2190577     1.8261657     2.0037232
H           0.6392566     2.1728605     2.7552019
H           0.8505889     1.1140441     1.3814468
C           2.1934216    -0.3212045    -0.3904891
O           2.0124909    -0.6523296    -1.5464820
N           1.3415037    -0.7531061     0.6324245
H           0.7155307    -1.4901702     0.3232287
H           1.7696803    -0.9332273     1.5346780
N           4.4737244     0.4970680    -0.6985378
C           5.2945204     1.3445489    -0.1206391
H           6.3130416     1.5404880    -0.4305970
N           4.7422718     1.9815895     0.9466771
C           5.4332734     2.9992940     1.7393152
H           4.8774663     3.9370182     1.7264442
H           6.4199281     3.1446754     1.2927278
H           5.5318795     2.6767307     2.7755368
20
419_C6H8N4O2_0-1-7-8 (165,) energy =    -602.9323099
C           3.4532260     1.4674197     1.0652117
C           3.3037552     0.5626264     0.0020398
C           2.5847730     2.0174004     2.1465230
O           3.0701671     2.6226039     3.1023613
N           1.2401684     1.8654837     1.9999743
H           0.6659621     2.1929542     2.7642830
H           0.8315284     1.2631465     1.2939671
C           2.2219242    -0.3983698    -0.3687793
O           2.1526607    -0.9089709    -1.4707059
N           1.2772601    -0.6909986     0.6225015
H           0.6902137    -1.4750267     0.3549217
H           1.6226636    -0.7557337     1.5745542
N           4.4474510     0.5208303    -0.7528324
C           5.2673248     1.3728695    -0.1837067
H           6.2709376     1.5987983    -0.5208504
N           4.7353029     1.9744079     0.9152847
C           5.4321873     2.9786760     1.7195004
H           4.8564914     3.9040627     1.7601650
H           6.3978922     3.1644433     1.2433894
H           5.5750652     2.6211530     2.7387602
20
419_C6H8N4O2_0-1-7-8 (180,) energy =    -602.9305229
C           3.4795741     1.4222083     1.0592576
C           3.4402395     0.0296630     0.8709761
C           2.4961777     2.5364484     1.0994344
O           2.8393188     3.7049840     0.9360466
N           1.1851173     2.2039848     1.3221088
H           0.5606441     2.9839712     1.4804658
H           0.9242920     1.3020187     1.6998474
C           2.3761830    -0.9290507     0.4189300
O           2.5966500    -2.1244495     0.3363514
N           1.1290457    -0.4082050     0.1030599
H           0.5398211    -1.0843806    -0.3696117
H           1.0666295     0.5368874    -0.2565921
N           4.6983281    -0.4961950     1.0107853
C           5.4774299     0.5232081     1.2843863
H           6.5431579     0.4675271     1.4668114
N           4.8120826     1.7086659     1.3209393
C           5.4406908     2.9989566     1.6026751
H           5.3799606     3.6533695     0.7332665
H           6.4849301     2.8048218     1.8583966
H           4.9445618     3.4935945     2.4387957
