22
299_C9H12O_0-4-14-9 (-165,) energy =    -425.3959457
C           1.7212308    -2.0040222    -0.6296440
H           1.6781392    -1.6914985    -1.6772837
H           0.7244022    -2.3293537    -0.3207330
H           2.4133975    -2.8482787    -0.5264913
O           2.0531382    -0.9405196     0.2467682
C           5.7120196     0.9736146     0.8155320
H           6.6527455     1.4833463     1.0030423
C           4.6559911     1.0752418     1.7195584
H           4.7639818     1.6704811     2.6232675
C           3.4500554     0.4164342     1.4882360
C           2.3068639     0.5179399     2.4680050
H           2.5822822     1.1493844     3.3184394
H           2.0165542    -0.4682150     2.8488988
H           1.4119376     0.9430401     1.9984881
C           3.3034663    -0.3689692     0.3209103
C           4.3412952    -0.4539556    -0.6322295
C           4.2565737    -1.1550023    -1.9772393
H           3.4615155    -0.7426641    -2.6087951
H           4.0931791    -2.2344090    -1.9032914
H           5.1970600    -1.0115881    -2.5175623
C           5.5388047     0.2215767    -0.3395603
H           6.3491812     0.1576512    -1.0620997
22
299_C9H12O_0-4-14-9 (-150,) energy =    -425.3975520
C           1.7581538    -2.0544669    -0.4623720
H           1.9295197    -2.2396739    -1.5271625
H           0.7029524    -2.2375963    -0.2413947
H           2.3691946    -2.7460879     0.1306487
O           1.9971455    -0.7029724    -0.0964673
C           5.6913337     0.9644706     0.8733035
H           6.6382970     1.4183879     1.1514580
C           4.4997075     1.4023149     1.4496099
H           4.5098132     2.2056705     2.1825601
C           3.2803834     0.8186433     1.1062860
C           1.9873190     1.2816626     1.7313883
H           2.1716064     2.0856614     2.4507319
H           1.4778153     0.4622774     2.2517166
H           1.2851234     1.6513830     0.9749686
C           3.2665779    -0.2349950     0.1661682
C           4.4492151    -0.6546371    -0.4767425
C           4.4983065    -1.6473029    -1.6218671
H           3.8066567    -1.3712839    -2.4259779
H           4.2627757    -2.6748177    -1.3240554
H           5.5045760    -1.6600971    -2.0513812
C           5.6510055    -0.0449690    -0.0816232
H           6.5717596    -0.3655010    -0.5638527
22
299_C9H12O_0-4-14-9 (-135,) energy =    -425.3991824
C           1.7946228    -2.0541273    -0.3771551
H           2.0084323    -2.4306190    -1.3828480
H           0.7308157    -2.1998624    -0.1681577
H           2.3828004    -2.6229632     0.3535944
O           2.0341426    -0.6554869    -0.2602547
C           5.7089758     0.9177637     0.9145080
H           6.6542968     1.3464198     1.2355269
C           4.5097511     1.3571282     1.4742110
H           4.5160681     2.1331151     2.2361442
C           3.2883247     0.8097162     1.0764716
C           1.9849633     1.2757483     1.6776616
H           2.1608903     2.0471656     2.4338505
H           1.4420239     0.4485932     2.1496289
H           1.3161605     1.6896153     0.9141079
C           3.2890176    -0.2052744     0.0987501
C           4.4804633    -0.6266999    -0.5215716
C           4.5063435    -1.5926724    -1.6859649
H           3.7482208    -1.3346516    -2.4340328
H           4.3307436    -2.6331462    -1.3871370
H           5.4831432    -1.5585935    -2.1781363
C           5.6830364    -0.0574601    -0.0775440
H           6.6115920    -0.3771086    -0.5453305
22
299_C9H12O_0-4-14-9 (-120,) energy =    -425.4005411
C           1.7781419    -2.0201265    -0.2686057
H           2.3211489    -2.6419776    -0.9881329
H           0.7057306    -2.1223420    -0.4539000
H           2.0034322    -2.3719224     0.7468751
O           2.0724673    -0.6328462    -0.4100166
C           5.7245752     0.8697277     0.9198009
H           6.6671007     1.2808258     1.2710162
C           4.5209084     1.2951207     1.4814216
H           4.5230477     2.0415708     2.2723304
C           3.3005755     0.7749965     1.0423688
C           1.9897762     1.2340583     1.6336872
H           2.1570399     1.9899840     2.4073011
H           1.4356029     0.4023405     2.0845074
H           1.3351736     1.6646179     0.8675164
C           3.3132482    -0.1986758     0.0262178
C           4.5093395    -0.6061809    -0.5907685
C           4.5237441    -1.5440427    -1.7756956
H           3.6614257    -1.3698271    -2.4275672
H           4.5046094    -2.6005676    -1.4771807
H           5.4323238    -1.3944978    -2.3676598
C           5.7103398    -0.0646661    -0.1119050
H           6.6440854    -0.3711521    -0.5783734
22
299_C9H12O_0-4-14-9 (-105,) energy =    -425.4017808
C           1.7704296    -1.9742696    -0.1431244
H           2.4803495    -2.7180290    -0.5252790
H           0.7858038    -2.1640776    -0.5778568
H           1.7092618    -2.0744955     0.9490975
O           2.1288665    -0.6480142    -0.5221756
C           5.7357429     0.8375018     0.9383850
H           6.6713521     1.2418746     1.3152611
C           4.5244821     1.2297619     1.5082543
H           4.5154734     1.9427573     2.3294612
C           3.3106388     0.7224173     1.0347288
C           1.9896137     1.1538880     1.6248178
H           2.1396980     1.9143213     2.3974709
H           1.4521714     0.3137070     2.0813724
H           1.3277816     1.5678658     0.8562590
C           3.3445994    -0.1998954    -0.0253493
C           4.5483231    -0.5870605    -0.6373054
C           4.5609780    -1.5171074    -1.8274554
H           3.6622976    -1.3854727    -2.4373789
H           4.6028703    -2.5727168    -1.5265828
H           5.4371102    -1.3279543    -2.4561591
C           5.7414510    -0.0566037    -0.1295323
H           6.6831826    -0.3421933    -0.5931585
22
299_C9H12O_0-4-14-9 (-90,) energy =    -425.4020221
C           1.6994214    -1.9379910    -0.0599783
H           2.4270452    -2.7511655    -0.1822912
H           0.7797037    -2.1954974    -0.5912962
H           1.4778377    -1.8225828     1.0091199
O           2.1711525    -0.7216374    -0.6336626
C           5.7333835     0.7786155     0.9179097
H           6.6625922     1.1819195     1.3114759
C           4.5172264     1.1287456     1.5018135
H           4.4979234     1.8104236     2.3492062
C           3.3080642     0.6252221     1.0073762
C           1.9855686     1.0209754     1.6197437
H           2.0860275     1.9453884     2.1972085
H           1.6036312     0.2508826     2.3034812
H           1.2242747     1.1708439     0.8483884
C           3.3583647    -0.2473973    -0.0920458
C           4.5689517    -0.5992793    -0.7118024
C           4.5782342    -1.5016052    -1.9226214
H           3.8039617    -1.2088380    -2.6386191
H           4.3843292    -2.5487748    -1.6552390
H           5.5500387    -1.4674447    -2.4248039
C           5.7541601    -0.0732807    -0.1856273
H           6.7007634    -0.3315667    -0.6548964
22
299_C9H12O_0-4-14-9 (-75,) energy =    -425.4015706
C           1.6613547    -1.7998208     0.0744174
H           2.3626569    -2.6298381     0.2352761
H           0.8247752    -2.1482945    -0.5365219
H           1.2794021    -1.4677841     1.0469609
O           2.2747752    -0.7399823    -0.6544416
C           5.7651638     0.8691648     0.9535926
H           6.6806730     1.2911959     1.3593051
C           4.5377242     1.1737223     1.5366264
H           4.4951759     1.8430159     2.3931717
C           3.3424185     0.6459398     1.0304790
C           2.0142593     1.0294366     1.6400007
H           2.0719840     2.0242054     2.0938000
H           1.7047158     0.3333535     2.4313153
H           1.2235699     1.0412424     0.8838439
C           3.4208178    -0.2060139    -0.0838269
C           4.6463108    -0.5159850    -0.6992979
C           4.6805489    -1.4107861    -1.9148622
H           4.0614835    -1.0074832    -2.7238762
H           4.2922502    -2.4124367    -1.6942870
H           5.7040383    -1.5212152    -2.2864315
C           5.8139186     0.0358040    -0.1640221
H           6.7693571    -0.1933452    -0.6303311
22
299_C9H12O_0-4-14-9 (-60,) energy =    -425.4001844
C           1.5572255    -1.7310336     0.1181682
H           2.1944074    -2.3771176     0.7357826
H           0.9864950    -2.3510536    -0.5785278
H           0.8561030    -1.1960401     0.7673644
O           2.3394338    -0.8510813    -0.6844881
C           5.7738024     0.8848343     0.9151547
H           6.6800757     1.3306722     1.3158393
C           4.5448128     1.1370647     1.5177867
H           4.4908364     1.7929845     2.3839401
C           3.3576295     0.5807347     1.0210729
C           2.0333712     0.9510011     1.6492331
H           2.1270225     1.8888377     2.2058844
H           1.6736378     0.1914572     2.3554998
H           1.2577329     1.0859987     0.8880247
C           3.4465327    -0.2564630    -0.1051633
C           4.6761599    -0.5121291    -0.7413348
C           4.7262576    -1.3989383    -1.9616671
H           4.1002688    -1.0042878    -2.7699436
H           4.3528983    -2.4064533    -1.7434126
H           5.7516246    -1.4885537    -2.3337610
C           5.8316769     0.0728684    -0.2173442
H           6.7865633    -0.1196275    -0.7009632
22
299_C9H12O_0-4-14-9 (-45,) energy =    -425.3988798
C           1.4837658    -1.6658596     0.1746208
H           1.9750931    -2.1184670     1.0449363
H           1.0630089    -2.4598727    -0.4490549
H           0.6681522    -1.0203553     0.5161605
O           2.4176083    -0.9741960    -0.6461615
C           5.7892376     0.9197915     0.9065466
H           6.6850306     1.3977714     1.2931880
C           4.5630778     1.1178954     1.5325758
H           4.5004698     1.7670004     2.4031533
C           3.3847357     0.5211752     1.0590101
C           2.0685020     0.8742072     1.7187563
H           2.2013686     1.7408151     2.3736473
H           1.6617881     0.0633760     2.3347698
H           1.3062758     1.1351718     0.9760261
C           3.4830244    -0.3101644    -0.0729749
C           4.7124935    -0.5102624    -0.7339019
C           4.7746812    -1.3944068    -1.9552669
H           4.1327442    -1.0158145    -2.7591653
H           4.4260601    -2.4096745    -1.7329492
H           5.7988969    -1.4578648    -2.3357804
C           5.8537144     0.1179757    -0.2326480
H           6.8044065    -0.0359720    -0.7378370
22
299_C9H12O_0-4-14-9 (-30,) energy =    -425.3973037
C           1.4105085    -1.6130878     0.1696779
H           1.7612990    -2.0324272     1.1207341
H           0.9737023    -2.4160925    -0.4303322
H           0.6379641    -0.8632324     0.3655001
O           2.4869551    -1.1037246    -0.6029465
C           5.7826257     0.9747884     0.8766335
H           6.6645229     1.4934552     1.2418259
C           4.5610271     1.1278013     1.5216033
H           4.4892276     1.7829298     2.3868643
C           3.3941006     0.4803774     1.0832265
C           2.0920946     0.8182610     1.7846922
H           2.2617101     1.6332308     2.4948357
H           1.6669101    -0.0173467     2.3509830
H           1.3272574     1.1598314     1.0781275
C           3.5034605    -0.3607505    -0.0431093
C           4.7320394    -0.5168912    -0.7227388
C           4.8095210    -1.4166646    -1.9316821
H           4.1332531    -1.0821188    -2.7270705
H           4.5131443    -2.4430294    -1.6856351
H           5.8274696    -1.4379799    -2.3331145
C           5.8560941     0.1622236    -0.2539623
H           6.8011776     0.0385401    -0.7776302
22
299_C9H12O_0-4-14-9 (-15,) energy =    -425.3958552
C           1.3468719    -1.5520999     0.1204267
H           1.5291679    -1.9718654     1.1169495
H           0.8808771    -2.3198908    -0.5026378
H           0.6615022    -0.7029681     0.2002679
O           2.5561656    -1.2217164    -0.5406510
C           5.7712525     1.0515753     0.8270261
H           6.6358496     1.6194851     1.1585278
C           4.5582527     1.1649810     1.4943816
H           4.4781883     1.8357687     2.3467141
C           3.4090903     0.4543314     1.1062648
C           2.1288644     0.7464582     1.8706130
H           2.3309744     1.5030298     2.6346649
H           1.7144442    -0.1245649     2.3872156
H           1.3432901     1.1515663     1.2228615
C           3.5295016    -0.4095343    -0.0036703
C           4.7536765    -0.5309807    -0.7023650
C           4.8473482    -1.4602448    -1.8876222
H           4.1362362    -1.1822098    -2.6743847
H           4.6083091    -2.4926080    -1.6065092
H           5.8555557    -1.4426498    -2.3130856
C           5.8569356     0.2071505    -0.2786076
H           6.7946867     0.1073902    -0.8202226
22
299_C9H12O_0-4-14-9 (0,) energy =    -425.3951729
C           1.2895635    -1.4478396     0.0292272
H           1.2695753    -1.8013657     1.0654643
H           0.8245050    -2.2057386    -0.6064199
H           0.7130221    -0.5206061    -0.0544620
O           2.6088322    -1.3090524    -0.4676955
C           5.7511522     1.1371803     0.7671701
H           6.5957271     1.7564611     1.0553225
C           4.5493464     1.2191681     1.4583977
H           4.4629427     1.9113111     2.2927326
C           3.4250906     0.4418360     1.1285476
C           2.1819989     0.6452731     1.9798838
H           2.3903169     1.4022604     2.7417632
H           1.8721152    -0.2603079     2.5111695
H           1.3217007     1.0037898     1.4056926
C           3.5565346    -0.4511787     0.0421981
C           4.7733746    -0.5489462    -0.6745278
C           4.8837880    -1.5122089    -1.8307582
H           4.1465768    -1.2889397    -2.6109213
H           4.6936239    -2.5441332    -1.5129841
H           5.8823324    -1.4670131    -2.2765677
C           5.8533268     0.2476949    -0.3005574
H           6.7836034     0.1649475    -0.8576410
22
299_C9H12O_0-4-14-9 (15,) energy =    -425.3958552
C           1.2540588    -1.3387172    -0.0662066
H           1.0482194    -1.5923887     0.9780221
H           0.7790341    -2.0857299    -0.7074451
H           0.8263341    -0.3556026    -0.2964874
O           2.6336767    -1.4000278    -0.3847418
C           5.7059955     1.2015889     0.6958325
H           6.5270013     1.8697477     0.9396708
C           4.5184731     1.2563921     1.4144294
H           4.4207080     1.9678736     2.2311750
C           3.4264813     0.4142666     1.1412798
C           2.2265393     0.5217434     2.0670942
H           2.4288858     1.2777591     2.8316337
H           2.0254420    -0.4173476     2.5948154
H           1.3035546     0.8203352     1.5608864
C           3.5711164    -0.5052950     0.0800509
C           4.7762687    -0.5829845    -0.6569026
C           4.8995479    -1.5803244    -1.7826274
H           4.1378409    -1.4106765    -2.5526666
H           4.7560679    -2.6077018    -1.4278192
H           5.8860629    -1.5128366    -2.2517165
C           5.8296006     0.2699646    -0.3335459
H           6.7522745     0.2048867    -0.9054851
22
299_C9H12O_0-4-14-9 (30,) energy =    -425.3973037
C           1.2590590    -1.2648497    -0.1348793
H           0.8935763    -1.4511443     0.8796015
H           0.7829235    -1.9774027    -0.8139903
H           0.9851144    -0.2474458    -0.4402499
O           2.6546249    -1.4893843    -0.2657101
C           5.6616794     1.2528751     0.6334317
H           6.4616034     1.9600602     0.8337670
C           4.4935693     1.2828735     1.3859752
H           4.3904696     2.0099826     2.1882897
C           3.4349573     0.3863517     1.1654323
C           2.2622989     0.4267631     2.1270341
H           2.4854144     1.1186930     2.9447761
H           2.0725513    -0.5542368     2.5770511
H           1.3270485     0.7641867     1.6675128
C           3.5871805    -0.5533473     0.1252961
C           4.7730191    -0.6111923    -0.6402915
C           4.9055860    -1.6376422    -1.7384561
H           4.1139600    -1.5250483    -2.4884256
H           4.8187123    -2.6585651    -1.3484923
H           5.8732850    -1.5433928    -2.2409475
C           5.7993293     0.2927110    -0.3680894
H           6.7102809     0.2475259    -0.9604025
22
299_C9H12O_0-4-14-9 (45,) energy =    -425.3988798
C           1.2927266    -1.2265720    -0.2095603
H           0.7893436    -1.2991304     0.7599198
H           0.8427480    -1.9533777    -0.8920097
H           1.1487392    -0.2181040    -0.6169479
O           2.6731761    -1.5619989    -0.1321536
C           5.6308872     1.2838953     0.5881249
H           6.4155573     2.0174288     0.7512894
C           4.4865416     1.2938418     1.3786942
H           4.3861025     2.0299424     2.1731940
C           3.4549909     0.3595391     1.2003389
C           2.2938384     0.3559139     2.1719770
H           2.5318073     0.9808056     3.0382481
H           2.0843944    -0.6543924     2.5409670
H           1.3651587     0.7454834     1.7382426
C           3.6048420    -0.5903749     0.1720478
C           4.7645524    -0.6300403    -0.6291734
C           4.8965777    -1.6747856    -1.7100935
H           4.0769952    -1.6069502    -2.4349474
H           4.8603091    -2.6890870    -1.2959135
H           5.8424303    -1.5580230    -2.2482053
C           5.7694183     0.3117796    -0.4021425
H           6.6642288     0.2863495    -1.0197168
22
299_C9H12O_0-4-14-9 (60,) energy =    -425.4001844
C           1.3449285    -1.2428612    -0.3087496
H           0.7649381    -0.9864361     0.5840571
H           0.8798658    -2.1058995    -0.7929240
H           1.3308142    -0.3911116    -1.0009896
O           2.6798429    -1.6340107     0.0001655
C           5.5995369     1.2855501     0.5647004
H           6.3728902     2.0370759     0.6980584
C           4.4861092     1.2720210     1.3997435
H           4.3973913     2.0078458     2.1960204
C           3.4744116     0.3121109     1.2559634
C           2.3267553     0.2762398     2.2392951
H           2.6030460     0.7940539     3.1632544
H           2.0576159    -0.7535982     2.4967348
H           1.4236621     0.7663023     1.8527863
C           3.6118431    -0.6367011     0.2273335
C           4.7373104    -0.6528302    -0.6183173
C           4.8579901    -1.7019737    -1.6966891
H           4.0234883    -1.6489682    -2.4058546
H           4.8434307    -2.7134735    -1.2752892
H           5.7898506    -1.5765501    -2.2568384
C           5.7256131     0.3167247    -0.4306255
H           6.5982513     0.3133753    -1.0796561
22
299_C9H12O_0-4-14-9 (75,) energy =    -425.4015706
C           1.4153199    -1.2340583    -0.4203646
H           0.8765256    -0.5413282     0.2367525
H           0.8233524    -2.1450801    -0.5393603
H           1.5488342    -0.7582903    -1.4014087
O           2.6654583    -1.6385225     0.1313072
C           5.5706284     1.3164899     0.5623895
H           6.3388746     2.0771919     0.6719359
C           4.4893681     1.2848658     1.4394122
H           4.4195547     2.0168592     2.2411268
C           3.4875016     0.3122185     1.3222963
C           2.3498417     0.2576083     2.3149396
H           2.6625306     0.6660164     3.2815106
H           2.0117686    -0.7714966     2.4690560
H           1.4823656     0.8446397     1.9841722
C           3.6052560    -0.6302389     0.2871358
C           4.6951625    -0.6283902    -0.6010198
C           4.7976451    -1.6801351    -1.6793367
H           3.9528041    -1.6318424    -2.3769360
H           4.7928086    -2.6894181    -1.2530464
H           5.7185244    -1.5545832    -2.2572702
C           5.6740393     0.3574361    -0.4453068
H           6.5240721     0.3706973    -1.1236024
22
299_C9H12O_0-4-14-9 (90,) energy =    -425.4020221
C           1.4368395    -1.3341533    -0.5880610
H           0.8933766    -0.4784818    -0.1663222
H           0.7873167    -2.2130516    -0.5759649
H           1.7093020    -1.1005644    -1.6257746
O           2.5819720    -1.6664784     0.1925729
C           5.5185828     1.2725440     0.4859711
H           6.2942688     2.0289134     0.5707870
C           4.4663641     1.2456388     1.3995816
H           4.4243682     1.9794905     2.2013480
C           3.4595642     0.2767324     1.3121098
C           2.3308166     0.2268969     2.3141350
H           2.5985126     0.7666906     3.2279503
H           2.0838207    -0.8059932     2.5770959
H           1.4138883     0.6871511     1.9219301
C           3.5396717    -0.6644160     0.2726178
C           4.6005737    -0.6720437    -0.6481790
C           4.6777381    -1.7304640    -1.7224943
H           3.9511949    -1.5526606    -2.5263460
H           4.4623205    -2.7229546    -1.3145478
H           5.6721363    -1.7482558    -2.1792366
C           5.5857055     0.3140807    -0.5243733
H           6.4167999     0.3214508    -1.2259505
22
299_C9H12O_0-4-14-9 (105,) energy =    -425.4017808
C           1.5103161    -1.3761173    -0.6662324
H           0.9912376    -0.4232532    -0.4949341
H           0.8009883    -2.1990494    -0.5473033
H           1.9005396    -1.3846396    -1.6913469
O           2.5372413    -1.5872399     0.2991494
C           5.5387291     1.2905287     0.5422074
H           6.3265495     2.0347810     0.6218644
C           4.5146751     1.2522456     1.4885792
H           4.5051163     1.9664989     2.3086861
C           3.4942575     0.3000663     1.4040546
C           2.3912656     0.2300983     2.4326423
H           2.5500204     0.9705805     3.2227436
H           2.3409463    -0.7622599     2.8939182
H           1.4061642     0.4194298     1.9888864
C           3.5237510    -0.6119613     0.3349824
C           4.5603762    -0.6148284    -0.6130352
C           4.6198733    -1.6525922    -1.7089874
H           4.0666910    -1.3396608    -2.6048970
H           4.1911246    -2.6016944    -1.3738150
H           5.6553478    -1.8298866    -2.0172310
C           5.5610441     0.3582412    -0.4923201
H           6.3738586     0.3691390    -1.2152192
22
299_C9H12O_0-4-14-9 (120,) energy =    -425.4005411
C           1.5449552    -1.4839239    -0.7375142
H           1.1747897    -0.4663058    -0.9195815
H           0.7067294    -2.1247099    -0.4518242
H           1.9861448    -1.8716301    -1.6618037
O           2.4548476    -1.5122950     0.3590541
C           5.5513100     1.2681541     0.5713423
H           6.3576932     1.9923525     0.6487450
C           4.5513455     1.2250940     1.5426344
H           4.5774703     1.9164014     2.3817657
C           3.5065832     0.3011913     1.4566952
C           2.4236477     0.2362340     2.5062767
H           2.5938870     0.9853310     3.2858612
H           2.3856065    -0.7511590     2.9801039
H           1.4310506     0.4127904     2.0753699
C           3.4789384    -0.5797824     0.3594789
C           4.5023062    -0.5900787    -0.6048763
C           4.5576911    -1.6222109    -1.7073644
H           3.9557998    -1.3385346    -2.5808499
H           4.1935446    -2.5936811    -1.3573300
H           5.5874002    -1.7512461    -2.0557200
C           5.5255023     0.3603509    -0.4836173
H           6.3236765     0.3656360    -1.2227368
22
299_C9H12O_0-4-14-9 (135,) energy =    -425.3991824
C           1.5853718    -1.5729552    -0.7979538
H           1.5220848    -0.6435671    -1.3773966
H           0.5812383    -1.8559255    -0.4689434
H           1.9816787    -2.3691528    -1.4366155
O           2.3555714    -1.3947592     0.3862206
C           5.5621646     1.2553397     0.6192779
H           6.3903693     1.9533379     0.7047561
C           4.5727440     1.2122048     1.6009267
H           4.6266572     1.8787321     2.4585817
C           3.4988760     0.3254406     1.4999509
C           2.4211949     0.2724620     2.5550164
H           2.6120945     1.0094493     3.3413137
H           2.3632528    -0.7185147     3.0199948
H           1.4314586     0.4728402     2.1284109
C           3.4282277    -0.5254839     0.3787547
C           4.4429548    -0.5404997    -0.5969726
C           4.4870976    -1.5484743    -1.7246353
H           3.7660488    -1.3345399    -2.5227829
H           4.2817290    -2.5616620    -1.3610358
H           5.4815871    -1.5550785    -2.1812299
C           5.4933167     0.3787926    -0.4590664
H           6.2819625     0.3809030    -1.2082313
22
299_C9H12O_0-4-14-9 (150,) energy =    -425.3975520
C           1.5889773    -1.6654627    -0.8025660
H           1.5430857    -0.8462871    -1.5307344
H           0.5704767    -1.9329935    -0.5077760
H           2.0591983    -2.5379766    -1.2663094
O           2.2408453    -1.2634853     0.3936876
C           5.5847674     1.2094959     0.6590036
H           6.4422260     1.8692558     0.7571455
C           4.5943357     1.1846447     1.6399401
H           4.6747697     1.8262685     2.5143240
C           3.4848421     0.3483861     1.5175073
C           2.4048169     0.3214700     2.5710617
H           2.6313037     1.0284266     3.3752675
H           2.2975175    -0.6769395     3.0110704
H           1.4266795     0.5798385     2.1489001
C           3.3706606    -0.4744183     0.3755265
C           4.3878700    -0.5136205    -0.6000820
C           4.4313482    -1.4933856    -1.7564884
H           3.6681313    -1.3073422    -2.5199284
H           4.3094108    -2.5275785    -1.4148215
H           5.4043516    -1.4296783    -2.2529056
C           5.4746339     0.3605851    -0.4363047
H           6.2622161     0.3463132    -1.1863608
22
299_C9H12O_0-4-14-9 (165,) energy =    -425.3959452
C           1.6164218    -1.7664757    -0.7807909
H           1.5304122    -1.0773975    -1.6294168
H           0.6126816    -2.0786210    -0.4807666
H           2.1824275    -2.6524170    -1.0838672
O           2.1643515    -1.1301284     0.3612753
C           5.6389542     1.1465084     0.7062307
H           6.5268559     1.7598494     0.8302591
C           4.6302740     1.1546565     1.6680257
H           4.7253381     1.7751006     2.5560925
C           3.4849140     0.3767220     1.5103650
C           2.3869578     0.3880634     2.5455675
H           2.6413242     1.0606133     3.3706606
H           2.2130882    -0.6129270     2.9575988
H           1.4330656     0.7143307     2.1148030
C           3.3471760    -0.4254472     0.3534169
C           4.3727391    -0.4856297    -0.6148429
C           4.3978476    -1.4013270    -1.8266760
H           3.5898137    -1.2126100    -2.5398704
H           4.3506613    -2.4596407    -1.5458866
H           5.3387863    -1.2582751    -2.3663424
C           5.4990954     0.3296290    -0.4086725
H           6.2930373     0.2985050    -1.1513365
22
299_C9H12O_0-4-14-9 (180,) energy =    -425.3951722
C           1.6600793    -1.8964800    -0.7075979
H           1.5996548    -1.3946806    -1.6788756
H           0.6532608    -2.1983770    -0.4077738
H           2.2818084    -2.7939041    -0.7948818
O           2.1061961    -1.0304855     0.3209037
C           5.6812714     1.0678310     0.7623769
H           6.5973301     1.6308552     0.9163818
C           4.6482435     1.1199496     1.6963555
H           4.7496831     1.7279688     2.5922689
C           3.4720473     0.3990446     1.5028265
C           2.3519468     0.4539407     2.5125630
H           2.6175995     1.1091225     3.3480151
H           2.1230773    -0.5408046     2.9126901
H           1.4240365     0.8263406     2.0627913
C           3.3276284    -0.3962961     0.3408035
C           4.3586044    -0.4676051    -0.6216801
C           4.3330257    -1.2757672    -1.9090808
H           3.5497583    -0.9520152    -2.6025084
H           4.2044821    -2.3495360    -1.7415569
H           5.2870091    -1.1494778    -2.4295167
C           5.5217151     0.2819544    -0.3715331
H           6.3232838     0.2354416    -1.1050874
