13
152_C3H8O2_0-2-10-8 (-165,) energy =    -269.5551208
O           1.6137516    -0.4334047    -1.1487190
H           1.4393372     0.5018123    -0.9572781
C           2.2826598    -0.9997616    -0.0180643
C           2.3887427    -2.4943436    -0.2952675
H           1.3928689    -2.9134343    -0.4661382
H           2.8426094    -3.0162406     0.5528350
H           2.9880829    -2.6764057    -1.1964286
H           1.6918110    -0.8489903     0.8992656
O           4.5515047    -1.0300268     1.0096971
H           4.8262334    -1.8386360     0.5527660
C           3.6646738    -0.3340176     0.1440920
H           3.5546218     0.6704194     0.5697648
H           4.0913999    -0.2225933    -0.8655995
13
152_C3H8O2_0-2-10-8 (-150,) energy =    -269.5527649
O           1.8368988    -1.0451132     1.2486847
H           1.0646352    -1.6304517     1.2828506
C           2.7331202    -1.5604720     0.2582917
C           2.1334005    -1.4202792    -1.1415305
H           1.2017450    -1.9940440    -1.2167441
H           2.8226076    -1.7916451    -1.9061657
H           1.8912226    -0.3712804    -1.3547606
H           2.9401520    -2.6254377     0.4482877
O           4.7925080    -0.5621152    -0.7468290
H           4.3080686     0.0575778    -1.3117604
C           4.0330044    -0.7416986     0.4413675
H           4.6972347    -1.2363208     1.1549472
H           3.7391549     0.2255856     0.8758005
13
152_C3H8O2_0-2-10-8 (-135,) energy =    -269.5509631
O           1.8229654    -0.9324345     1.2015571
H           1.0085330    -1.4591466     1.2146008
C           2.7228816    -1.5438676     0.2692067
C           2.1596917    -1.4934367    -1.1511630
H           1.2271942    -2.0682130    -1.2099712
H           2.8670370    -1.9113297    -1.8733057
H           1.9288110    -0.4612207    -1.4411785
H           2.8798808    -2.5989005     0.5446845
O           4.7004644    -0.4058038    -0.7879130
H           4.1708776     0.2936204    -1.1987193
C           4.0620557    -0.7715930     0.4288291
H           4.7906699    -1.3850743     0.9655350
H           3.8480983     0.1108740     1.0485098
13
152_C3H8O2_0-2-10-8 (-120,) energy =    -269.5509859
O           1.8501209    -0.8246477     1.1601454
H           0.9940224    -1.2807167     1.1412306
C           2.7363131    -1.5244243     0.2762215
C           2.1871853    -1.5763913    -1.1481727
H           1.2421918    -2.1337547    -1.1692104
H           2.8907783    -2.0670624    -1.8269978
H           1.9903645    -0.5682364    -1.5282008
H           2.8594687    -2.5578939     0.6395874
O           4.6089877    -0.2478158    -0.8187985
H           4.0722178     0.5307234    -1.0315837
C           4.1071700    -0.8029812     0.3907243
H           4.8725972    -1.5181498     0.7056240
H           4.0134823    -0.0440203     1.1794016
13
152_C3H8O2_0-2-10-8 (-105,) energy =    -269.5531850
O           1.8196847    -0.7411000     1.1056706
H           0.9322994    -1.1244726     1.0236352
C           2.7065080    -1.5120392     0.2821425
C           2.1953595    -1.6459448    -1.1495754
H           1.2282333    -2.1646520    -1.1614129
H           2.8955105    -2.2191352    -1.7656827
H           2.0654334    -0.6633915    -1.6120932
H           2.7999397    -2.5214388     0.7179874
O           4.4847860    -0.0790103    -0.7508290
H           3.9426182     0.7251325    -0.7683626
C           4.0916126    -0.8360933     0.3873286
H           4.8593694    -1.6110539     0.4780986
H           4.1067943    -0.2374448     1.3082210
13
152_C3H8O2_0-2-10-8 (-90,) energy =    -269.5564622
O           1.8459802    -0.6427905     1.0383221
H           0.9376778    -0.9617918     0.9200159
C           2.7147490    -1.4966044     0.2793452
C           2.2208453    -1.7084947    -1.1483603
H           1.2275303    -2.1753442    -1.1467886
H           2.8994901    -2.3667178    -1.7017941
H           2.1620112    -0.7576397    -1.6841793
H           2.7785292    -2.4762861     0.7848345
O           4.3889900     0.0737970    -0.6756021
H           3.8065738     0.8371361    -0.5327141
C           4.1089982    -0.8594890     0.3596121
H           4.8647166    -1.6437708     0.2442185
H           4.2278857    -0.4171975     1.3587392
13
152_C3H8O2_0-2-10-8 (-75,) energy =    -269.5594088
O           1.8874096    -0.5443736     0.9629406
H           0.9648660    -0.8057979     0.8191916
C           2.7281731    -1.4843259     0.2769431
C           2.2418536    -1.7630307    -1.1422722
H           1.2196500    -2.1628998    -1.1321291
H           2.8826595    -2.5042858    -1.6331559
H           2.2592205    -0.8480176    -1.7399696
H           2.7556893    -2.4305767     0.8451444
O           4.2956453     0.2108258    -0.5693443
H           3.6420607     0.8789781    -0.3040743
C           4.1296027    -0.8749707     0.3306476
H           4.8679114    -1.6273752     0.0334008
H           4.3405623    -0.5797716     1.3692841
13
152_C3H8O2_0-2-10-8 (-60,) energy =    -269.5608272
O           1.9251153    -0.4458425     0.8742921
H           0.9952803    -0.6692771     0.7174225
C           2.7397236    -1.4650779     0.2741752
C           2.2578096    -1.8108515    -1.1328840
H           1.2116782    -2.1437845    -1.1205392
H           2.8567577    -2.6233417    -1.5599277
H           2.3442456    -0.9374227    -1.7854428
H           2.7296862    -2.3704145     0.9037734
O           4.2217846     0.3316520    -0.4439988
H           3.4929620     0.8761752    -0.0999974
C           4.1526486    -0.8775949     0.2923869
H           4.8587429    -1.5760808    -0.1686308
H           4.4570124    -0.7250669     1.3400844
13
152_C3H8O2_0-2-10-8 (-45,) energy =    -269.5595568
O           1.9316367    -0.3635895     0.7727219
H           1.0008756    -0.5872590     0.6250442
C           2.7404462    -1.4379536     0.2700947
C           2.2687236    -1.8638998    -1.1196058
H           1.2124257    -2.1639656    -1.1076691
H           2.8493023    -2.7188635    -1.4844817
H           2.3905163    -1.0339753    -1.8229550
H           2.7030379    -2.2955990     0.9598277
O           4.2011241     0.4362786    -0.2873895
H           3.4202482     0.8783088     0.0892625
C           4.1707969    -0.8704211     0.2532043
H           4.8223964    -1.5032120    -0.3583415
H           4.5661767    -0.8752842     1.2828567
13
152_C3H8O2_0-2-10-8 (-30,) energy =    -269.5569259
O           1.6791970    -0.5260554     0.8089432
H           1.5964529     0.1481123     0.1136852
C           2.6265702    -1.4747899     0.3096938
C           2.1655245    -2.0462005    -1.0310683
H           1.1458752    -2.4363706    -0.9527535
H           2.8247869    -2.8574965    -1.3620446
H           2.1828048    -1.2672140    -1.8050834
H           2.6520205    -2.2725842     1.0595163
O           3.9200620     0.5897503    -0.0334819
H           3.4777501     0.9572570     0.7490440
C           4.0292921    -0.8071910     0.2167167
H           4.6089490    -1.2253771    -0.6116711
H           4.5936741    -0.9850262     1.1448183
13
152_C3H8O2_0-2-10-8 (-15,) energy =    -269.5553988
O           1.6463816    -0.4544076     0.6896937
H           1.6877942     0.2470277     0.0173225
C           2.6045581    -1.4338539     0.2852163
C           2.1780531    -2.1150513    -1.0147898
H           1.1692461    -2.5288002    -0.9198761
H           2.8656243    -2.9287308    -1.2766902
H           2.1813796    -1.3963023    -1.8452463
H           2.6051518    -2.1703705     1.0955047
O           3.9483462     0.6405571     0.1591346
H           3.4909865     0.8882585     0.9797638
C           4.0237600    -0.7797159     0.1732450
H           4.5100005    -1.0629069    -0.7651878
H           4.6671304    -1.1240975     0.9973287
13
152_C3H8O2_0-2-10-8 (0,) energy =    -269.5547338
O           1.6186520    -0.3801033     0.5617199
H           1.7634147     0.3408062    -0.0745415
C           2.5850742    -1.3849796     0.2543561
C           2.1985042    -2.1742740    -0.9952804
H           1.2005147    -2.6091681    -0.8830796
H           2.9126446    -2.9859710    -1.1835323
H           2.1939492    -1.5212127    -1.8778458
H           2.5594467    -2.0548767     1.1211315
O           3.9962486     0.6534995     0.3506840
H           3.5139535     0.7943583     1.1822739
C           4.0127699    -0.7507859     0.1297386
H           4.4041131    -0.8796820    -0.8848470
H           4.7109318    -1.2526217     0.8172489
13
152_C3H8O2_0-2-10-8 (15,) energy =    -269.5556898
O           1.5055501    -0.3496432     0.2938828
H           1.9799733     0.4979755     0.2062012
C           2.5016808    -1.3562472     0.1863354
C           2.2149999    -2.2766622    -0.9970284
H           1.2248211    -2.7307248    -0.8922721
H           2.9579426    -3.0822756    -1.0618697
H           2.2337203    -1.7074743    -1.9337770
H           2.4590012    -1.9557953     1.1106954
O           3.9117412     0.6673843     0.4595741
H           3.8483786     0.7128963     1.4274535
C           3.9185193    -0.7127202     0.0821299
H           4.2509555    -0.7069427    -0.9611310
H           4.6529914    -1.2840244     0.6639152
13
152_C3H8O2_0-2-10-8 (30,) energy =    -269.5586545
O           1.4918867    -0.2970083     0.0803139
H           1.9561546     0.5299346     0.3088071
C           2.4850696    -1.3072484     0.1346943
C           2.2415333    -2.3296502    -0.9674944
H           1.2432026    -2.7655570    -0.8633843
H           2.9775109    -3.1419748    -0.9223711
H           2.3042049    -1.8493119    -1.9503469
H           2.4123717    -1.8226587     1.1118647
O           3.9081965     0.6479648     0.5961639
H           3.9499513     0.5661208     1.5627923
C           3.8914226    -0.6712425     0.0380403
H           4.1610276    -0.5269409    -1.0138560
H           4.6501305    -1.3174202     0.4981882
13
152_C3H8O2_0-2-10-8 (45,) energy =    -269.5610813
O           1.5044457    -0.2438031    -0.0713129
H           1.9013199     0.5606745     0.3099326
C           2.4850283    -1.2548053     0.1013245
C           2.2506473    -2.3491354    -0.9302384
H           1.2406597    -2.7562526    -0.8228710
H           2.9680923    -3.1688625    -0.8060804
H           2.3478950    -1.9430947    -1.9431375
H           2.3893765    -1.6943249     1.1145009
O           3.9497483     0.5871700     0.7461284
H           3.9855807     0.3514801     1.6874071
C           3.8816746    -0.6292211    -0.0068540
H           4.0731858    -0.3327553    -1.0434817
H           4.6620257    -1.3399480     0.3000293
13
152_C3H8O2_0-2-10-8 (60,) energy =    -269.5609842
O           1.5002476    -0.2329937    -0.2065925
H           1.7973286     0.5749465     0.2480924
C           2.4881855    -1.2141225     0.0807202
C           2.2776719    -2.3796616    -0.8768854
H           1.2556413    -2.7592360    -0.7843146
H           2.9732735    -3.1984490    -0.6611235
H           2.4252651    -2.0537023    -1.9124429
H           2.3748473    -1.5777952     1.1211009
O           4.0221595     0.5043524     0.8663776
H           4.0504957     0.1306937     1.7616151
C           3.8755316    -0.5856302    -0.0481865
H           3.9882662    -0.1542055    -1.0475188
H           4.6664786    -1.3374466     0.0979129
13
152_C3H8O2_0-2-10-8 (75,) energy =    -269.5583491
O           1.4666120    -0.2340481    -0.3393284
H           1.6460489     0.5873613     0.1491102
C           2.4679321    -1.1653571     0.0613098
C           2.3007996    -2.3929610    -0.8277377
H           1.2742915    -2.7654384    -0.7611249
H           2.9840915    -3.1946742    -0.5269256
H           2.4996606    -2.1356902    -1.8741901
H           2.3224936    -1.4604894     1.1175296
O           4.1159328     0.4015643     0.9754735
H           4.1645522    -0.0979223     1.8052968
C           3.8584664    -0.5375520    -0.0697505
H           3.9131977     0.0207247    -1.0087741
H           4.6348090    -1.3195700    -0.0888195
13
152_C3H8O2_0-2-10-8 (90,) energy =    -269.5546995
O           1.4433707    -0.2359925    -0.4638399
H           1.5204165     0.6000187     0.0249142
C           2.4476750    -1.1134265     0.0451892
C           2.3273860    -2.3988663    -0.7674888
H           1.3035737    -2.7808958    -0.7170791
H           3.0088172    -3.1690454    -0.3898905
H           2.5656962    -2.2077595    -1.8200550
H           2.2606011    -1.3380057     1.1106814
O           4.2140540     0.2738363     1.0824553
H           4.3012114    -0.3479150     1.8209368
C           3.8491434    -0.4842079    -0.0693672
H           3.8583734     0.2072608    -0.9169679
H           4.6014015    -1.2655735    -0.2657840
13
152_C3H8O2_0-2-10-8 (105,) energy =    -269.5516724
O           1.4107221    -0.3099851    -0.5760007
H           1.4189952     0.5289976    -0.0877104
C           2.3887518    -1.1635312     0.0209813
C           2.2905269    -2.4893424    -0.7271237
H           1.2683267    -2.8761948    -0.6815245
H           2.9680910    -3.2343704    -0.2952527
H           2.5544487    -2.3500886    -1.7817262
H           2.1520879    -1.3263939     1.0864887
O           4.2696298    -0.0315085     1.1966803
H           4.4037012    -0.7838555     1.7927834
C           3.8103612    -0.5491538    -0.0494681
H           3.7933075     0.2939853    -0.7465422
H           4.5268058    -1.2869000    -0.4450255
13
152_C3H8O2_0-2-10-8 (120,) energy =    -269.5505700
O           1.4183911    -0.3134758    -0.7039028
H           1.3625861     0.5374026    -0.2411285
C           2.3675319    -1.1221302    -0.0059255
C           2.3091544    -2.4994726    -0.6557001
H           1.2975127    -2.9111623    -0.5939768
H           2.9999101    -3.1930253    -0.1620106
H           2.5863356    -2.4305312    -1.7138273
H           2.0807432    -1.2048323     1.0558248
O           4.3123884    -0.2165951     1.2649083
H           4.5075579    -1.0625112     1.6962760
C           3.7917672    -0.4993619    -0.0304743
H           3.7399371     0.4641828    -0.5473898
H           4.4855909    -1.1350852    -0.6029131
13
152_C3H8O2_0-2-10-8 (135,) energy =    -269.5516723
O           1.4325228    -0.3182831    -0.8143284
H           1.3451170     0.5517716    -0.3949179
C           2.3446753    -1.0853764    -0.0271562
C           2.3227345    -2.5013419    -0.5864165
H           1.3175418    -2.9283160    -0.5225066
H           3.0106605    -3.1490112    -0.0292815
H           2.6284982    -2.4970431    -1.6388939
H           2.0103250    -1.1015171     1.0235272
O           4.3464217    -0.4171950     1.2865265
H           4.5895636    -1.3231622     1.5321378
C           3.7624849    -0.4556685    -0.0114832
H           3.6786456     0.5919220    -0.3208985
H           4.4231458    -0.9535083    -0.7384399
13
152_C3H8O2_0-2-10-8 (150,) energy =    -269.5540276
O           1.4618244    -0.3403499    -0.9163267
H           1.3539846     0.5533489    -0.5555675
C           2.3283682    -1.0578890    -0.0375015
C           2.3478648    -2.5038531    -0.5127393
H           1.3442058    -2.9376133    -0.4758926
H           3.0073672    -3.1112354     0.1193996
H           2.7092694    -2.5577938    -1.5460564
H           1.9396712    -1.0190832     0.9936096
O           4.3828849    -0.6007641     1.2624070
H           4.6544792    -1.5295489     1.3239827
C           3.7315847    -0.4160017     0.0107954
H           3.6212900     0.6697749    -0.0950800
H           4.3490858    -0.7623105    -0.8327496
13
152_C3H8O2_0-2-10-8 (165,) energy =    -269.5560311
O           1.5044993    -0.3721870    -1.0055989
H           1.3722412     0.5395471    -0.7021261
C           2.3119494    -1.0393962    -0.0345542
C           2.3695340    -2.5057224    -0.4381948
H           1.3650552    -2.9388096    -0.4571301
H           2.9743300    -3.0812856     0.2726435
H           2.8065010    -2.6080135    -1.4384251
H           1.8582707    -0.9579599     0.9667880
O           4.4283212    -0.7658011     1.2069922
H           4.7344460    -1.6765777     1.0799731
C           3.7009268    -0.3840408     0.0460619
H           3.5750220     0.7028350     0.1270870
H           4.2622874    -0.5795319    -0.8810958
13
152_C3H8O2_0-2-10-8 (180,) energy =    -269.5564813
O           1.5529354    -0.3974060    -1.0801085
H           1.3983880     0.5272263    -0.8301075
C           2.2914105    -1.0184169    -0.0252526
C           2.3791223    -2.4989472    -0.3688721
H           1.3764065    -2.9236121    -0.4738559
H           2.9016937    -3.0505193     0.4203050
H           2.9095044    -2.6413505    -1.3183920
H           1.7676301    -0.9042199     0.9375091
O           4.4815955    -0.9120841     1.1232057
H           4.7898855    -1.7782708     0.8179361
C           3.6735565    -0.3557847     0.0942120
H           3.5498947     0.7033722     0.3520870
H           4.1686194    -0.4001346    -0.8887939
