19
228_C6H9N3O_0-5-7-14 (-165,) energy =    -473.5480459
C           0.7668086    -1.2874634    -1.4421037
C          -0.5209618    -0.5467019    -1.7695623
H          -1.3095658    -0.8959022    -1.0959384
H          -0.8263488    -0.8024675    -2.7890007
H          -0.4353347     0.5411322    -1.6870654
N           1.8351217    -0.5012592    -1.1320763
H           1.7544270     0.5011648    -1.0104414
C           3.0928317    -1.0883809    -0.7207125
H           3.6070886    -1.5435455    -1.5809197
H           2.9010653    -1.9082731    -0.0144708
O           0.8447968    -2.5119858    -1.4663038
C           4.6767463     1.8767635     0.6090567
H           4.6650872     2.9377909     0.8165387
N           3.6087415     1.2525514    -0.0018935
C           3.9441893    -0.0178557    -0.1014250
N           5.1880551    -0.2403094     0.4176872
H           5.6692604    -1.1271769     0.4638056
C           5.6689500     0.9723667     0.8792574
H           6.6385399     1.0645344     1.3444796
19
228_C6H9N3O_0-5-7-14 (-150,) energy =    -473.5477563
C           0.7710938    -1.3027950    -1.3837567
C          -0.5323302    -0.5754095    -1.6773361
H          -1.2512049    -0.8075525    -0.8854845
H          -0.9464382    -0.9574004    -2.6156305
H          -0.4220016     0.5105653    -1.7541746
N           1.8769750    -0.5085759    -1.2888823
H           1.7986771     0.5001571    -1.2352557
C           3.1535692    -1.0566377    -0.8777710
H           3.7161177    -1.4317993    -1.7472974
H           2.9706361    -1.9249474    -0.2321889
O           0.8264013    -2.5219568    -1.2585417
C           4.6126733     1.9065191     0.5907664
H           4.5886226     2.9697787     0.7855159
N           3.6078934     1.2842095    -0.1210100
C           3.9396203     0.0098864    -0.1701198
N           5.1213850    -0.2164021     0.4768710
H           5.5824467    -1.1080640     0.5889427
C           5.5635918     0.9976794     0.9721712
H           6.4804608     1.0874488     1.5346463
19
228_C6H9N3O_0-5-7-14 (-135,) energy =    -473.5473526
C           0.8281399    -1.2897866    -1.2971371
C          -0.4872723    -0.5727248    -1.5598344
H          -1.1130901    -0.6463934    -0.6648123
H          -1.0139857    -1.0873638    -2.3691689
H          -0.3674496     0.4816261    -1.8267472
N           1.9495313    -0.5153823    -1.4187624
H           1.8688914     0.4940802    -1.4488952
C           3.2503918    -1.0165028    -1.0198062
H           3.8451703    -1.2994865    -1.9025783
H           3.0913110    -1.9322953    -0.4391825
O           0.8753386    -2.4829510    -1.0184252
C           4.5997072     1.9228362     0.5928298
H           4.5737029     2.9870072     0.7826745
N           3.6606959     1.3152930    -0.2147626
C           3.9738378     0.0352832    -0.2265096
N           5.0808446    -0.2082654     0.5362680
H           5.5088824    -1.1082743     0.7004089
C           5.4928220     1.0001091     1.0697465
H           6.3493774     1.0767138     1.7221218
19
228_C6H9N3O_0-5-7-14 (-120,) energy =    -473.5477277
C           1.0088197     0.0230558    -1.0214109
C           0.4487759    -1.0690223    -1.9200820
H           0.9060628    -2.0507162    -1.7616835
H           0.5880604    -0.7727239    -2.9636711
H          -0.6290867    -1.1492968    -1.7452584
N           1.9031994    -0.3960388    -0.0744310
H           2.1384930    -1.3761338    -0.0078696
C           2.4532886     0.5061453     0.9342068
H           2.1929016     0.1540404     1.9375375
H           1.9678835     1.4709883     0.7655431
O           0.6806356     1.1980775    -1.1476018
C           6.0519059     0.3864181     1.2180344
H           6.9522845     0.0457448     1.7111108
N           4.8036517     0.0327392     1.6814980
C           3.9454170     0.6163247     0.8665673
N           4.5941914     1.3295824    -0.1066067
H           4.1516786     1.8567456    -0.8466587
C           5.9487744     1.1889703     0.1090579
H           6.6842857     1.6634131    -0.5231105
19
228_C6H9N3O_0-5-7-14 (-105,) energy =    -473.5492687
C           1.1797123     0.0531038    -1.0660013
C           0.5040372    -0.9839755    -1.9483008
H           0.7365982    -2.0171286    -1.6721354
H           0.8021068    -0.8138776    -2.9867392
H          -0.5799161    -0.8396404    -1.8922236
N           1.8747148    -0.4357527     0.0028927
H           1.9329612    -1.4326361     0.1527379
C           2.4354040     0.4522492     1.0207164
H           2.2143695     0.0512818     2.0136680
H           1.9277561     1.4130629     0.9045823
O           1.1143223     1.2562403    -1.3078572
C           6.0447046     0.4890793     1.1712563
H           6.9802813     0.2098773     1.6367137
N           4.8353317     0.0972763     1.7047408
C           3.9200873     0.6083570     0.9049625
N           4.4896484     1.3119242    -0.1221084
H           3.9770325     1.7754972    -0.8609790
C           5.8570262     1.2392062     0.0363004
H           6.5428349     1.7180691    -0.6463588
19
228_C6H9N3O_0-5-7-14 (-90,) energy =    -473.5519349
C           1.3315160    -0.0244655    -1.0386861
C           0.5563456    -0.9737089    -1.9356322
H           0.5336344    -2.0048059    -1.5699065
H           0.9976286    -0.9574875    -2.9363684
H          -0.4717060    -0.6083890    -2.0265916
N           1.8341357    -0.5516169     0.1112044
H           1.7000132    -1.5297649     0.3213674
C           2.4279110     0.3139325     1.1345626
H           2.2758012    -0.1464031     2.1131667
H           1.8920248     1.2671685     1.1033936
O           1.5122969     1.1564494    -1.3416908
C           6.0336513     0.5246971     1.1006222
H           7.0058962     0.3128805     1.5247866
N           4.8763186     0.0898607     1.7111188
C           3.8977235     0.5226603     0.9400761
N           4.3725023     1.2172440    -0.1379439
H           3.7791186     1.6069419    -0.8622081
C           5.7467546     1.2213497    -0.0486786
H           6.3712667     1.7057042    -0.7842715
19
228_C6H9N3O_0-5-7-14 (-75,) energy =    -473.5535496
C           1.4045337    -0.0103829    -1.0310863
C           0.6539245    -0.9482756    -1.9604935
H           0.4640187    -1.9364166    -1.5306580
H           1.2263900    -1.0642027    -2.8857981
H          -0.3026440    -0.4868318    -2.2245244
N           1.7288164    -0.5067461     0.1919669
H           1.5728995    -1.4842723     0.3901916
C           2.4193285     0.3102545     1.1968860
H           2.3299388    -0.1905053     2.1623606
H           1.8944191     1.2700141     1.2533751
O           1.6932041     1.1402920    -1.3696605
C           6.0183899     0.5284572     1.0122894
H           7.0052385     0.3132788     1.3995814
N           4.8834390     0.0809355     1.6529421
C           3.8773761     0.5222796     0.9202542
N           4.3142933     1.2358087    -0.1599041
H           3.6870287     1.6078671    -0.8667288
C           5.6898150     1.2392574    -0.1174677
H           6.2876677     1.7374160    -0.8659592
19
228_C6H9N3O_0-5-7-14 (-60,) energy =    -473.5525941
C           1.3891381    -0.0908438    -0.9957496
C           0.6767130    -1.0433649    -1.9414488
H           0.2213006    -1.9018268    -1.4385928
H           1.3932921    -1.4093703    -2.6850895
H          -0.0970267    -0.4879183    -2.4775929
N           1.5866402    -0.5485689     0.2716301
H           1.4242864    -1.5313851     0.4428259
C           2.3990739     0.1722141     1.2652716
H           2.3831966    -0.4073118     2.1890541
H           1.9017255     1.1303419     1.4592515
O           1.7397419     1.0329453    -1.3612699
C           5.9810937     0.4020733     0.9224126
H           6.9798219     0.1626523     1.2622249
N           4.8692093    -0.0888896     1.5682049
C           3.8371181     0.4011190     0.9020178
N           4.2393396     1.1918326    -0.1360920
H           3.5888048     1.5808970    -0.8124808
C           5.6146876     1.1914259    -0.1420495
H           6.1862735     1.7357008    -0.8789525
19
228_C6H9N3O_0-5-7-14 (-45,) energy =    -473.5494568
C           1.4204946    -0.1111518    -1.0566518
C           0.6446621    -1.0597592    -1.9572709
H           0.0623585    -1.8081998    -1.4111895
H           1.3494984    -1.5773298    -2.6176727
H          -0.0257355    -0.4712361    -2.5883085
N           1.5174164    -0.4900614     0.2491162
H           1.2096217    -1.4294303     0.4603076
C           2.4202214     0.1105697     1.2514499
H           2.4539449    -0.5682007     2.1040800
H           1.9576279     1.0459262     1.5957719
O           1.8861064     0.9404686    -1.4975525
C           5.9892543     0.4269815     0.9095683
H           6.9891179     0.2001308     1.2546658
N           4.8817581    -0.1150463     1.5193952
C           3.8453642     0.3719908     0.8548970
N           4.2418108     1.2130574    -0.1434004
H           3.5922522     1.5804806    -0.8334961
C           5.6163096     1.2447057    -0.1308994
H           6.1828898     1.8230306    -0.8454440
19
228_C6H9N3O_0-5-7-14 (-30,) energy =    -473.5456476
C           1.4789506    -0.1543155    -1.1589928
C           0.5558928    -1.0541659    -1.9688491
H          -0.1040850    -1.6791528    -1.3593906
H           1.1674785    -1.7058138    -2.6026110
H          -0.0494420    -0.4280537    -2.6288975
N           1.5356932    -0.4366137     0.1726847
H           1.0292455    -1.2632299     0.4569454
C           2.4998719     0.0433348     1.1856221
H           2.5861255    -0.7374879     1.9425570
H           2.0556414     0.9202574     1.6807587
O           2.0790323     0.7716752    -1.7057065
C           6.0411580     0.5645376     0.9114273
H           7.0399451     0.4027428     1.2942039
N           4.9487902    -0.0395820     1.4889098
C           3.9090147     0.3734648     0.7802007
N           4.2862102     1.2289501    -0.2113526
H           3.6431980     1.5167318    -0.9459686
C           5.6553253     1.3437137    -0.1533060
H           6.2101636     1.9410238    -0.8614309
19
228_C6H9N3O_0-5-7-14 (-15,) energy =    -473.5425337
C           1.5217876    -0.2324648    -1.2145060
C           0.4330636    -1.0060723    -1.9478290
H          -0.3289930    -1.4375122    -1.2912741
H           0.9014627    -1.8166889    -2.5170040
H          -0.0465876    -0.3351208    -2.6642917
N           1.5600505    -0.4465412     0.1299394
H           0.8720944    -1.1046340     0.4681483
C           2.5546106    -0.0953215     1.1645915
H           2.6817869    -0.9716497     1.8047897
H           2.1063953     0.6890790     1.7944033
O           2.2609370     0.5268439    -1.8419272
C           6.0445437     0.7070552     1.0337912
H           7.0289352     0.6462061     1.4783550
N           4.9716639     0.0406355     1.5786263
C           3.9474260     0.3321865     0.7915294
N           4.3107692     1.1696896    -0.2184674
H           3.6970810     1.3487067    -1.0127650
C           5.6612432     1.3998062    -0.0893366
H           6.2080108     2.0036818    -0.7980465
19
228_C6H9N3O_0-5-7-14 (0,) energy =    -473.5406675
C           1.5556493    -0.4171301    -1.1896251
C           0.3083779    -0.9618986    -1.8758315
H          -0.4287663    -1.4024307    -1.1976623
H           0.6183940    -1.7204121    -2.6011680
H          -0.1630568    -0.1493602    -2.4363150
N           1.5698293    -0.5760370     0.1621636
H           0.7519325    -1.0395432     0.5323806
C           2.5731550    -0.3423215     1.2187747
H           2.7273381    -1.2908246     1.7444443
H           2.1045806     0.3363791     1.9466264
O           2.4263440     0.1297031    -1.8681104
C           5.9771819     0.7672627     1.2889531
H           6.9139476     0.8467073     1.8243471
N           4.9054402     0.0901812     1.8225437
C           3.9485148     0.1908462     0.9134636
N           4.3496203     0.9131883    -0.1660605
H           3.7972745     0.9530472    -1.0240520
C           5.6603786     1.2738824     0.0518011
H           6.2287475     1.8280480    -0.6799840
19
228_C6H9N3O_0-5-7-14 (15,) energy =    -473.5425398
C           1.5850826    -0.5387858    -1.1711973
C           0.2002861    -0.6179105    -1.8016394
H          -0.5572255    -1.0869998    -1.1661449
H           0.2768588    -1.1731561    -2.7398085
H          -0.1297982     0.3973821    -2.0467496
N           1.6232419    -0.8475700     0.1546343
H           0.7250980    -1.0739649     0.5579415
C           2.6756033    -0.6955087     1.1802638
H           3.0320601    -1.7062899     1.4336598
H           2.1987049    -0.3002509     2.0804252
O           2.5560600    -0.2388242    -1.8667016
C           5.5750705     1.3963187     1.4203474
H           6.2417204     1.9937384     2.0278274
N           4.4381700     0.8317551     1.9501283
C           3.8713237     0.1851553     0.9429851
N           4.6034062     0.2923575    -0.1999138
H           4.2258179     0.0153985    -1.1054990
C           5.6891341     1.0877644     0.0861663
H           6.4090494     1.3646742    -0.6694419
19
228_C6H9N3O_0-5-7-14 (30,) energy =    -473.5456472
C           1.6125080    -0.6537885    -1.1258073
C           0.2398864    -0.5123241    -1.7689153
H          -0.5915375    -0.7898571    -1.1137533
H           0.2109946    -1.1320596    -2.6687113
H           0.1061454     0.5286219    -2.0827140
N           1.5987876    -0.9042741     0.2133498
H           0.6841698    -0.8844246     0.6417919
C           2.7126434    -0.8426183     1.1832994
H           3.1231242    -1.8585562     1.2866701
H           2.2831385    -0.5747255     2.1497661
O           2.6303592    -0.5795984    -1.8149494
C           5.4130035     1.5120854     1.4138230
H           5.9986935     2.2053549     2.0025479
N           4.3085547     0.8832494     1.9397666
C           3.8442245     0.1210998     0.9611419
N           4.6135584     0.2197486    -0.1595355
H           4.3132279    -0.1633823    -1.0532797
C           5.6118131     1.1265190     0.1095515
H           6.3411376     1.4115592    -0.6339977
19
228_C6H9N3O_0-5-7-14 (45,) energy =    -473.5494542
C           1.6267489    -0.7417299    -1.0863887
C           0.2967059    -0.4369924    -1.7579454
H          -0.5677934    -0.5380277    -1.0948537
H           0.1752809    -1.1086559    -2.6117251
H           0.3244714     0.5866794    -2.1470244
N           1.5797743    -0.8943676     0.2670550
H           0.7107889    -0.6308704     0.7108846
C           2.7500480    -0.9452284     1.1661726
H           3.1719342    -1.9579926     1.1042756
H           2.3823667    -0.8081745     2.1834570
O           2.6536688    -0.8777908    -1.7528794
C           5.3218327     1.5641213     1.3787570
H           5.8677166     2.3030040     1.9500349
N           4.2625372     0.8768541     1.9243893
C           3.8424057     0.0662603     0.9654897
N           4.5960822     0.1953053    -0.1642485
H           4.3437529    -0.2556486    -1.0395743
C           5.5387501     1.1657088     0.0808792
H           6.2495301     1.4769032    -0.6701024
19
228_C6H9N3O_0-5-7-14 (60,) energy =    -473.5526000
C           1.6241116    -0.7954540    -1.0328113
C           0.3274715    -0.4318187    -1.7368229
H          -0.5322995    -0.3535968    -1.0646941
H           0.1198539    -1.1892399    -2.4976113
H           0.4609557     0.5239571    -2.2547204
N           1.5778292    -0.8148400     0.3279443
H           0.7659033    -0.4098895     0.7730964
C           2.7731903    -0.9964144     1.1675918
H           3.1727700    -1.9953087     0.9539789
H           2.4514432    -0.9794194     2.2095443
O           2.6397397    -1.0817316    -1.6700972
C           5.2822211     1.5809766     1.4166339
H           5.8134459     2.3298741     1.9886530
N           4.2625141     0.8446122     1.9754517
C           3.8521957     0.0352422     1.0132827
N           4.5705399     0.2145494    -0.1340372
H           4.3389944    -0.2552106    -1.0045772
C           5.4849319     1.2131174     0.1074319
H           6.1726041     1.5579769    -0.6502917
19
228_C6H9N3O_0-5-7-14 (75,) energy =    -473.5535493
C           1.4834706    -0.6829779    -1.4085334
C           0.2553155    -0.4001415    -2.2561633
H          -0.0961966    -1.3423937    -2.6883574
H           0.5401032     0.2530923    -3.0862415
H          -0.5665456     0.0619930    -1.7009810
N           1.3805685    -0.3929580    -0.0841226
H           0.5745127     0.1126147     0.2535132
C           2.4842422    -0.6535858     0.8473119
H           2.8333985    -1.6745473     0.6595928
H           2.0910378    -0.6036471     1.8641312
O           2.5092972    -1.1633140    -1.8968855
C           5.0745535     1.8445903     1.1268543
H           5.5975601     2.6138971     1.6789526
N           3.9994527     1.1778051     1.6721934
C           3.6190980     0.3200923     0.7427586
N           4.4032123     0.4036704    -0.3730715
H           4.2304414    -0.1404789    -1.2129142
C           5.3387129     1.3859707    -0.1419981
H           6.0820307     1.6575237    -0.8765548
19
228_C6H9N3O_0-5-7-14 (90,) energy =    -473.5519360
C           1.3927695    -0.7150332    -1.4016819
C           0.1380035    -0.4562931    -2.2172144
H          -0.3124498    -1.4184478    -2.4823382
H           0.4168254     0.0413700    -3.1503381
H          -0.6083615     0.1502625    -1.6951981
N           1.3889045    -0.2539283    -0.1209682
H           0.5892174     0.2496019     0.2338544
C           2.4614974    -0.6185900     0.8094047
H           2.7930694    -1.6264771     0.5428837
H           2.0546110    -0.6356901     1.8227513
O           2.3696549    -1.2978509    -1.8760581
C           5.0696966     1.8446948     1.2287325
H           5.5914043     2.5922895     1.8109400
N           3.9846947     1.1664258     1.7424398
C           3.6082822     0.3436750     0.7828219
N           4.4024119     0.4605122    -0.3242884
H           4.2582131    -0.0665555    -1.1786700
C           5.3442852     1.4274770    -0.0515395
H           6.0985350     1.7165475    -0.7679601
19
228_C6H9N3O_0-5-7-14 (105,) energy =    -473.5492691
C           1.3359427    -0.8657052    -1.4553873
C           0.0859265    -0.4776897    -2.2282834
H          -0.5524827    -1.3615919    -2.3297349
H           0.3748069    -0.1667670    -3.2361422
H          -0.4933351     0.3224308    -1.7570487
N           1.4899864    -0.2721489    -0.2354197
H           0.8055311     0.3953505     0.0894478
C           2.5557519    -0.6747370     0.6815422
H           2.9071184    -1.6500252     0.3355004
H           2.1463142    -0.7813300     1.6897485
O           2.1620217    -1.6559087    -1.9064423
C           5.0513148     1.8620408     1.3055267
H           5.5026173     2.6187527     1.9329090
N           3.9587256     1.1372993     1.7317355
C           3.6788664     0.3137050     0.7407209
N           4.5447417     0.4789826    -0.3067496
H           4.5075152    -0.0366747    -1.1764084
C           5.4306059     1.4752067     0.0436088
H           6.2240173     1.7983606    -0.6134540
19
228_C6H9N3O_0-5-7-14 (120,) energy =    -473.5477276
C           1.1990791    -0.9769878    -1.4291494
C          -0.0131517    -0.4658280    -2.1927798
H          -0.8076849    -1.2170785    -2.1347112
H           0.2551381    -0.3563681    -3.2473180
H          -0.4014407     0.4871660    -1.8199611
N           1.5358642    -0.2607198    -0.3130257
H           0.9824775     0.5417957    -0.0481984
C           2.6041240    -0.6794970     0.5911569
H           2.9714609    -1.6303220     0.1960634
H           2.2031805    -0.8492781     1.5955145
O           1.8294559    -1.9623584    -1.7979657
C           4.9816850     1.9256161     1.3694485
H           5.3648443     2.6920287     2.0295041
N           3.8891070     1.1616486     1.7167776
C           3.7006499     0.3341036     0.7063845
N           4.6284858     0.5391307    -0.2804032
H           4.6843280     0.0321303    -1.1528976
C           5.4569719     1.5602372     0.1344586
H           6.2823479     1.9116229    -0.4663633
19
228_C6H9N3O_0-5-7-14 (135,) energy =    -473.5473531
C           0.9214920    -1.2156235    -1.5981336
C          -0.3231061    -0.4547919    -2.0290377
H          -1.1802970    -1.1337746    -1.9958025
H          -0.1990962    -0.1364898    -3.0691615
H          -0.5379268     0.4220254    -1.4107436
N           1.6068352    -0.6672340    -0.5484882
H           1.4146948     0.2841363    -0.2577171
C           2.9065112    -1.1777098    -0.1575520
H           3.2612579    -1.8361925    -0.9585960
H           2.8238918    -1.7973397     0.7493520
O           1.2702441    -2.2568662    -2.1436235
C           4.6338076     1.9250768     0.5140811
H           4.6159075     2.9892982     0.7045657
N           3.4715823     1.2177784     0.2859487
C           3.8456122    -0.0299666     0.0865784
N           5.2022715    -0.1590861     0.1838806
H           5.7340874    -1.0069959     0.0482640
C           5.7213517     1.0941534     0.4568815
H           6.7811788     1.2633514     0.5721675
19
228_C6H9N3O_0-5-7-14 (150,) energy =    -473.5477576
C           0.8509583    -1.2613494    -1.5966535
C          -0.4061497    -0.5090490    -2.0064605
H          -1.2776310    -1.1346833    -1.7912764
H          -0.3820169    -0.3446937    -3.0884582
H          -0.5257049     0.4543736    -1.5015584
N           1.6517034    -0.6184852    -0.6975752
H           1.5062923     0.3569689    -0.4653143
C           2.9466330    -1.1581945    -0.3356423
H           3.3289376    -1.7474883    -1.1787300
H           2.8563050    -1.8554926     0.5122344
O           1.1192949    -2.3754112    -2.0347307
C           4.6386515     1.9180953     0.5243501
H           4.6183087     2.9829749     0.7104749
N           3.4961913     1.2287616     0.1735069
C           3.8679737    -0.0257823     0.0177972
N           5.2041810    -0.1767229     0.2589277
H           5.7315028    -1.0359003     0.1961203
C           5.7114028     1.0688354     0.5847836
H           6.7552318     1.2205049     0.8139204
19
228_C6H9N3O_0-5-7-14 (165,) energy =    -473.5480451
C           0.8110597    -1.2709603    -1.5507786
C          -0.4598429    -0.5221386    -1.9227864
H          -1.3212323    -1.0751885    -1.5361508
H          -0.5500147    -0.4994297    -3.0134579
H          -0.4936442     0.5027237    -1.5406616
N           1.7221545    -0.5608108    -0.8288639
H           1.6178374     0.4304317    -0.6478686
C           3.0088850    -1.1324737    -0.4921880
H           3.4182176    -1.6555325    -1.3677608
H           2.8994373    -1.8960359     0.2930447
O           1.0029317    -2.4398558    -1.8716129
C           4.7009265     1.8897900     0.5432165
H           4.6966080     2.9550969     0.7277806
N           3.5766478     1.2361326     0.0824974
C           3.9204108    -0.0305220    -0.0348299
N           5.2213628    -0.2233928     0.3346237
H           5.7224152    -1.1004072     0.3312761
C           5.7344180     1.0064609     0.7076192
H           6.7551848     1.1251382     1.0377464
19
228_C6H9N3O_0-5-7-14 (180,) energy =    -473.5481484
C           0.8261645    -1.2646410    -1.4756271
C          -0.4616260    -0.5411807    -1.8400584
H          -1.2970914    -1.0305471    -1.3305626
H          -0.6320977    -0.6422189    -2.9167294
H          -0.4567452     0.5217553    -1.5798307
N           1.8135857    -0.4848796    -0.9570358
H           1.7122444     0.5130193    -0.8172027
C           3.0893910    -1.0555660    -0.5820974
H           3.5554280    -1.5447841    -1.4502312
H           2.9435536    -1.8470061     0.1675398
O           0.9722514    -2.4721149    -1.6409949
C           4.7119113     1.9543199     0.5917766
H           4.6974867     3.0185019     0.7821391
N           3.6187411     1.3066562     0.0540133
C           3.9657232     0.0395083    -0.0464837
N           5.2397006    -0.1585065     0.4049817
H           5.7356209    -1.0379811     0.4330825
C           5.7304608     1.0674463     0.8185563
H           6.7260377     1.1805448     1.2199064
