17
325_C7H9N_0-4-12-10 (-165,) energy =    -326.9096012
C           1.6323089    -0.9677654    -1.1144999
H           1.4573914    -0.1391477    -1.8105246
H           0.6747403    -1.4708904    -0.9561508
H           2.3251607    -1.6764613    -1.5978840
N           2.1102185    -0.4686740     0.1606488
H           1.8504119    -1.0388066     0.9542995
C           5.8634860     1.4011936     0.6229428
H           6.8243140     1.8907691     0.7513115
C           5.1491177     0.9338380     1.7307679
H           5.5541642     1.0577931     2.7321594
C           3.9189620     0.3071847     1.5697951
H           3.3691604    -0.0460708     2.4403538
C           3.3633779     0.1270389     0.2867234
C           4.0881495     0.5927511    -0.8254673
H           3.6928187     0.4649261    -1.8276925
C           5.3200556     1.2247447    -0.6486435
H           5.8604922     1.5772199    -1.5239114
17
325_C7H9N_0-4-12-10 (-150,) energy =    -326.9090172
C           1.7482569    -1.5133022    -0.5248798
H           2.3135895    -2.0825765    -1.2709190
H           0.6879690    -1.6263089    -0.7665975
H           1.9367714    -1.9642451     0.4628198
N           2.0900265    -0.0994946    -0.5886212
H           1.3330051     0.4974283    -0.2788165
C           5.8324349     1.3260951     0.7513118
H           6.7939760     1.7012605     1.0891203
C           4.6902636     2.1281988     0.8254092
H           4.7571825     3.1359172     1.2280737
C           3.4562721     1.6470975     0.3999386
H           2.5729760     2.2799812     0.4676245
C           3.3326839     0.3484217    -0.1304638
C           4.4828658    -0.4587359    -0.1931638
H           4.4183847    -1.4673016    -0.5886095
C           5.7138161     0.0332639     0.2411228
H           6.5892101    -0.6087448     0.1793651
17
325_C7H9N_0-4-12-10 (-135,) energy =    -326.9076362
C           1.7130288    -1.4942194    -0.4357704
H           2.3422403    -2.2018260    -0.9843689
H           0.6886393    -1.6270724    -0.7955113
H           1.7517369    -1.7602119     0.6330075
N           2.1261361    -0.1198618    -0.7087488
H           1.3812730     0.5329148    -0.4901736
C           5.8194139     1.3115855     0.7705183
H           6.7688898     1.6847998     1.1430729
C           4.6612534     2.0837412     0.8795483
H           4.7013082     3.0651325     1.3457150
C           3.4410243     1.6001246     0.4131278
H           2.5419517     2.2052543     0.5174382
C           3.3539706     0.3393388    -0.2035916
C           4.5224906    -0.4366024    -0.3042111
H           4.4833894    -1.4144150    -0.7743804
C           5.7358951     0.0494559     0.1791261
H           6.6269070    -0.5667788     0.0868550
17
325_C7H9N_0-4-12-10 (-120,) energy =    -326.9061198
C           1.6648110    -1.4472480    -0.3347825
H           2.3654049    -2.2392033    -0.6134808
H           0.7115163    -1.6633493    -0.8267692
H           1.5194672    -1.4904464     0.7571622
N           2.1555355    -0.1506131    -0.8095535
H           1.4293636     0.5510794    -0.6974124
C           5.8083181     1.2830054     0.7781529
H           6.7489363     1.6522976     1.1766062
C           4.6349659     2.0219806     0.9335272
H           4.6544851     2.9714802     1.4626765
C           3.4250647     1.5408726     0.4335612
H           2.5111112     2.1147171     0.5772110
C           3.3705015     0.3246969    -0.2660749
C           4.5562188    -0.4135801    -0.4200808
H           4.5337895    -1.3505448    -0.9692792
C           5.7571406     0.0611232     0.1021031
H           6.6636512    -0.5239636    -0.0316973
17
325_C7H9N_0-4-12-10 (-105,) energy =    -326.9045294
C           1.6423285    -1.3914278    -0.2513611
H           2.3535319    -2.2204279    -0.3111422
H           0.7333519    -1.6917615    -0.7824428
H           1.3968146    -1.2324918     0.8120479
N           2.2088647    -0.2073467    -0.9089424
H           1.5045536     0.5267037    -0.9240875
C           5.7941384     1.2656130     0.8008848
H           6.7188675     1.6392697     1.2316207
C           4.5981093     1.9584126     0.9897139
H           4.5841051     2.8737565     1.5760772
C           3.4083810     1.4708021     0.4462092
H           2.4748186     2.0044795     0.6154232
C           3.4033843     0.3024437    -0.3295552
C           4.6108636    -0.3882276    -0.5170965
H           4.6139868    -1.2870696    -1.1276316
C           5.7914218     0.0869006     0.0493859
H           6.7187414    -0.4575609    -0.1100701
17
325_C7H9N_0-4-12-10 (-90,) energy =    -326.9028357
C           1.4573707    -1.2192683    -0.0928319
H           2.0674975    -2.1233380     0.0719168
H           0.5346654    -1.5060304    -0.6079192
H           1.1850992    -0.8161764     0.8876496
N           2.1373048    -0.1759888    -0.8749743
H           2.3263245    -0.5508459    -1.8030254
C           5.7634004     1.2703181     0.7824193
H           6.6880781     1.6572937     1.2017730
C           4.5363300     1.8335782     1.1433191
H           4.5055206     2.6678245     1.8395593
C           3.3506585     1.3504406     0.5921641
H           2.3947580     1.8044355     0.8379784
C           3.3710047     0.2735700    -0.3047402
C           4.6048868    -0.2857393    -0.6641023
H           4.6309300    -1.1156192    -1.3680490
C           5.7937477     0.2148850    -0.1298370
H           6.7432929    -0.2254431    -0.4235248
17
325_C7H9N_0-4-12-10 (-75,) energy =    -326.9046987
C           1.3808268    -1.1313684    -0.0647764
H           1.8970873    -2.0396826     0.2879637
H           0.4868268    -1.4280727    -0.6225428
H           1.0540828    -0.5682821     0.8144007
N           2.2120686    -0.2731556    -0.9184986
H           2.4386074    -0.7808473    -1.7705215
C           5.7680268     1.2859831     0.7742390
H           6.6765271     1.7022473     1.2003710
C           4.5165176     1.7605943     1.1780027
H           4.4497086     2.5570365     1.9149207
C           3.3501456     1.2416084     0.6213149
H           2.3791660     1.6382063     0.9051577
C           3.4120848     0.2091410    -0.3283750
C           4.6705217    -0.2612906    -0.7301545
H           4.7327252    -1.0559206    -1.4715955
C           5.8381716     0.2801294    -0.1895547
H           6.8043216    -0.0950014    -0.5176742
17
325_C7H9N_0-4-12-10 (-60,) energy =    -326.9063579
C           1.3137888    -1.0407675    -0.0554877
H           1.7338708    -1.8878379     0.5112458
H           0.4835527    -1.4041581    -0.6687985
H           0.9025334    -0.3255263     0.6623041
N           2.2865791    -0.3770221    -0.9268833
H           2.5383525    -0.9950707    -1.6928972
C           5.7808208     1.3128890     0.7588696
H           6.6760711     1.7608880     1.1803688
C           4.5156788     1.6992366     1.2097226
H           4.4232707     2.4596495     1.9812550
C           3.3634055     1.1372245     0.6658206
H           2.3856743     1.4714969     1.0008605
C           3.4535506     0.1480428    -0.3291166
C           4.7278297    -0.2343918    -0.7779878
H           4.8145576    -0.9959896    -1.5511225
C           5.8771736     0.3486733    -0.2448425
H           6.8522639     0.0365977    -0.6105613
17
325_C7H9N_0-4-12-10 (-45,) energy =    -326.9078777
C           1.2537617    -0.9477304    -0.0593477
H           1.5837665    -1.6323476     0.7385932
H           0.5209252    -1.4641060    -0.6859100
H           0.7395306    -0.1030287     0.4096376
N           2.3428647    -0.4768068    -0.9114190
H           2.6017439    -1.1813755    -1.5936153
C           5.7909910     1.3257010     0.7403914
H           6.6773789     1.8000156     1.1513443
C           4.5251143     1.6282452     1.2455920
H           4.4209140     2.3486250     2.0533068
C           3.3816502     1.0277671     0.7217898
H           2.4060436     1.2923702     1.1178010
C           3.4841779     0.0877180    -0.3193710
C           4.7625133    -0.2114379    -0.8239697
H           4.8594694    -0.9340516    -1.6325778
C           5.8980622     0.4040493    -0.3031390
H           6.8738052     0.1525964    -0.7114917
17
325_C7H9N_0-4-12-10 (-30,) energy =    -326.9091584
C           1.2188485    -0.8631219    -0.0750110
H           1.4462898    -1.3856474     0.8682694
H           0.5364609    -1.4821337    -0.6636904
H           0.6876330     0.0631745     0.1702227
N           2.3987850    -0.5805019    -0.8790965
H           2.6544263    -1.3532578    -1.4814946
C           5.7943876     1.3459755     0.7285129
H           6.6696609     1.8491074     1.1287005
C           4.5322312     1.5719817     1.2775367
H           4.4182978     2.2588149     2.1127549
C           3.4017563     0.9295337     0.7721683
H           2.4308619     1.1274478     1.2147304
C           3.5162463     0.0331324    -0.3057088
C           4.7934785    -0.1900589    -0.8557419
H           4.8983492    -0.8780762    -1.6929271
C           5.9127651     0.4590406    -0.3452607
H           6.8867892     0.2652631    -0.7878471
17
325_C7H9N_0-4-12-10 (-15,) energy =    -326.9095929
C           1.1832370    -0.8077427    -0.1006124
H           1.2906993    -1.2390191     0.9086798
H           0.5034835    -1.4403348    -0.6776046
H           0.7110417     0.1762553     0.0016584
N           2.4370012    -0.6971744    -0.8201729
H           2.6847276    -1.5151390    -1.3599726
C           5.7825688     1.3697163     0.7052038
H           6.6471945     1.9055413     1.0855497
C           4.5306540     1.5289944     1.2972355
H           4.4136855     2.1933804     2.1500712
C           3.4137696     0.8412403     0.8195290
H           2.4533675     0.9802696     1.3046461
C           3.5314117    -0.0237014    -0.2836595
C           4.8006424    -0.1816839    -0.8769830
H           4.9068276    -0.8461712    -1.7325831
C           5.9053526     0.5047152    -0.3871083
H           6.8723100     0.3627146    -0.8636261
17
325_C7H9N_0-4-12-10 (0,) energy =    -326.9089099
C           1.1742409    -0.7928766    -0.0854834
H           1.2043010    -1.0533712     0.9801492
H           0.5386445    -1.5254010    -0.5900054
H           0.6967953     0.1969197    -0.1776144
N           2.4967068    -0.8489122    -0.6623689
H           2.5788875    -1.2241582    -1.5944157
C           5.7901767     1.4020968     0.6876619
H           6.6450537     1.9760142     1.0327266
C           4.5511567     1.5245794     1.3150877
H           4.4328797     2.2044227     2.1555579
C           3.4444289     0.7964412     0.8762164
H           2.4889165     0.9217110     1.3749095
C           3.5658341    -0.0968843    -0.2053514
C           4.8209609    -0.2128974    -0.8391390
H           4.9304653    -0.8976261    -1.6781685
C           5.9107668     0.5274349    -0.3973262
H           6.8664448     0.4170508    -0.9041496
17
325_C7H9N_0-4-12-10 (15,) energy =    -326.9095929
C           1.1702037    -0.7677316    -0.1330442
H           1.0873589    -0.9558343     0.9437293
H           0.5171342    -1.4811703    -0.6425906
H           0.7963952     0.2510560    -0.3292772
N           2.5315961    -0.9822247    -0.5826982
H           2.6130586    -1.2988258    -1.5392279
C           5.7640135     1.4272672     0.6575868
H           6.6044216     2.0368273     0.9761865
C           4.5425860     1.4948759     1.3259687
H           4.4240442     2.1649064     2.1741556
C           3.4546705     0.7194448     0.9213263
H           2.5144089     0.7979571     1.4568627
C           3.5764753    -0.1590409    -0.1707356
C           4.8138478    -0.2215770    -0.8437226
H           4.9245061    -0.8977388    -1.6895855
C           5.8867328     0.5608322    -0.4335393
H           6.8289219     0.4930466    -0.9719657
17
325_C7H9N_0-4-12-10 (30,) energy =    -326.9091583
C           1.1730963    -0.7254386    -0.1893374
H           0.9725184    -0.7991023     0.8852359
H           0.5260388    -1.4504003    -0.6904325
H           0.8922146     0.2876420    -0.5199180
N           2.5590868    -1.0645296    -0.4771418
H           2.6832378    -1.4403975    -1.4091821
C           5.7578090     1.4557769     0.6370203
H           6.5889665     2.0917110     0.9271031
C           4.5651269     1.4726201     1.3600256
H           4.4623393     2.1250978     2.2237552
C           3.4907140     0.6611557     0.9950032
H           2.5759823     0.6901954     1.5781695
C           3.5907329    -0.1919214    -0.1188836
C           4.7980435    -0.2043796    -0.8441016
H           4.8928675    -0.8619325    -1.7065888
C           5.8635727     0.6069013    -0.4683943
H           6.7826853     0.5787430    -1.0485661
17
325_C7H9N_0-4-12-10 (45,) energy =    -326.9078777
C           1.1678332    -0.6886954    -0.2743859
H           0.8838397    -0.5403557     0.7721707
H           0.5259718    -1.4789873    -0.6740441
H           0.9614739     0.2461599    -0.8200692
N           2.5580335    -1.1264111    -0.3720195
H           2.7341111    -1.5826061    -1.2606472
C           5.7436618     1.4678244     0.6223074
H           6.5709773     2.1207456     0.8846048
C           4.5891766     1.4341566     1.4066587
H           4.5157880     2.0611091     2.2919555
C           3.5244861     0.5962891     1.0797900
H           2.6444764     0.5730893     1.7151588
C           3.5867919    -0.2223515    -0.0622557
C           4.7532576    -0.1841864    -0.8472000
H           4.8204916    -0.8142569    -1.7326051
C           5.8172621     0.6464785    -0.5045508
H           6.7062527     0.6569368    -1.1303350
17
325_C7H9N_0-4-12-10 (60,) energy =    -326.9063579
C           1.1846412    -0.6558493    -0.3921197
H           0.8636098    -0.2289833     0.5621354
H           0.5110103    -1.4867618    -0.6228961
H           1.0705985     0.1195918    -1.1672008
N           2.5498114    -1.1755275    -0.2776280
H           2.7800351    -1.7180740    -1.1051811
C           5.7200813     1.4786050     0.6239332
H           6.5409689     2.1473361     0.8663834
C           4.6110834     1.3831059     1.4689926
H           4.5706424     1.9741155     2.3806411
C           3.5601631     0.5195925     1.1700383
H           2.7203816     0.4293191     1.8530760
C           3.5835117    -0.2522751    -0.0047435
C           4.7014249    -0.1522144    -0.8483700
H           4.7370071    -0.7469770    -1.7595677
C           5.7606859     0.6980126    -0.5316905
H           6.6158604     0.7564326    -1.2004206
17
325_C7H9N_0-4-12-10 (75,) energy =    -326.9046986
C           1.2133382    -0.6265779    -0.4843009
H           0.8648970     0.0018391     0.3406003
H           0.4898654    -1.4376969    -0.6148616
H           1.2240573    -0.0097089    -1.3982718
N           2.5204211    -1.2038695    -0.1457445
H           2.7929972    -1.8503022    -0.8825239
C           5.6985950     1.4948931     0.6006126
H           6.5191271     2.1765369     0.8063468
C           4.6511818     1.3536945     1.5157867
H           4.6604370     1.9205898     2.4433512
C           3.6063800     0.4679837     1.2636401
H           2.8131999     0.3281274     1.9929985
C           3.5710124    -0.2708168     0.0700479
C           4.6254371    -0.1257056    -0.8429299
H           4.6142203    -0.6986619    -1.7684770
C           5.6845400     0.7431333    -0.5742138
H           6.4949344     0.8379530    -1.2926152
17
325_C7H9N_0-4-12-10 (90,) energy =    -326.9028357
C           1.2567494    -0.6145044    -0.5953964
H           0.8662662     0.1453467     0.0887876
H           0.4986500    -1.3978961    -0.6979441
H           1.4089135    -0.1371090    -1.5780880
N           2.4772574    -1.2020459    -0.0230481
H           2.7890279    -1.9472992    -0.6434618
C           5.6862655     1.5024867     0.5895098
H           6.5123037     2.1870806     0.7616475
C           4.7060575     1.3208397     1.5690011
H           4.7732834     1.8592366     2.5109540
C           3.6558278     0.4291401     1.3570978
H           2.9086847     0.2533815     2.1259727
C           3.5514522    -0.2713080     0.1475604
C           4.5386100    -0.0861912    -0.8300333
H           4.4712419    -0.6339073    -1.7683249
C           5.6032321     0.7891534    -0.6068743
H           6.3645100     0.9169097    -1.3723204
17
325_C7H9N_0-4-12-10 (105,) energy =    -326.9045293
C           1.4050967    -0.6733003    -0.8479727
H           0.9223687     0.1998751    -0.3779406
H           0.6591976    -1.4650691    -0.9713993
H           1.7425564    -0.3739448    -1.8445324
N           2.5397555    -1.2031349    -0.0817365
H           2.1964346    -1.5583241     0.8076852
C           5.7064418     1.5320247     0.5802830
H           6.5240409     2.2287137     0.7428640
C           4.8537686     1.1886429     1.6296331
H           4.9990780     1.6228529     2.6156454
C           3.7960688     0.3029162     1.4165976
H           3.1212005     0.0558510     2.2342110
C           3.5988498    -0.2849850     0.1586752
C           4.4619624     0.0635743    -0.8919226
H           4.3205890    -0.3987668    -1.8650273
C           5.4999778     0.9685113    -0.6822355
H           6.1623993     1.2235317    -1.5056112
17
325_C7H9N_0-4-12-10 (120,) energy =    -326.9061198
C           1.4298269    -0.7357850    -0.9258646
H           0.9520598     0.2232739    -0.6664738
H           0.6639602    -1.5171013    -0.9486252
H           1.8385503    -0.6467320    -1.9361687
N           2.4834425    -1.1373972     0.0101188
H           2.0700245    -1.3795292     0.9060707
C           5.7322294     1.5143685     0.5867154
H           6.5720461     2.1876101     0.7328644
C           4.9267031     1.1432686     1.6639309
H           5.1315486     1.5332395     2.6578576
C           3.8403778     0.2895581     1.4732218
H           3.2053700     0.0215867     2.3159556
C           3.5587535    -0.2410083     0.2040731
C           4.3749740     0.1358227    -0.8759634
H           4.1783400    -0.2751186    -1.8621115
C           5.4442533     1.0074470    -0.6832297
H           6.0655799     1.2830248    -1.5317578
17
325_C7H9N_0-4-12-10 (135,) energy =    -326.9076362
C           1.4859361    -0.8060594    -1.0075968
H           1.0953180     0.2244105    -1.0157805
H           0.6475893    -1.5004229    -0.9005950
H           1.9455345    -1.0022516    -1.9811762
N           2.4382742    -1.0587736     0.0710823
H           1.9574367    -1.2035454     0.9523298
C           5.7547885     1.5082673     0.6078403
H           6.6117096     2.1604234     0.7491161
C           4.9890089     1.0961468     1.7002515
H           5.2430082     1.4321867     2.7025505
C           3.8824387     0.2699186     1.5183475
H           3.2840032    -0.0328296     2.3760358
C           3.5305322    -0.1911559     0.2372538
C           4.3014058     0.2330439    -0.8597150
H           4.0505600    -0.1067588    -1.8598735
C           5.3978057     1.0721908    -0.6696361
H           5.9811791     1.3839045    -1.5325909
17
325_C7H9N_0-4-12-10 (150,) energy =    -326.9090172
C           1.5370008    -0.8731250    -1.0567364
H           1.2339546     0.1580942    -1.3000305
H           0.6386443    -1.4745058    -0.8933094
H           2.0521479    -1.2898552    -1.9292036
N           2.3771515    -0.9633478     0.1289010
H           1.8375510    -1.0226992     0.9837013
C           5.7774492     1.4936763     0.6127968
H           6.6563424     2.1179970     0.7439111
C           5.0474630     1.0520467     1.7198232
H           5.3540833     1.3362668     2.7234747
C           3.9171890     0.2582060     1.5539349
H           3.3540321    -0.0752072     2.4240051
C           3.4927754    -0.1324144     0.2692442
C           4.2244863     0.3232513    -0.8421995
H           3.9173778     0.0465843    -1.8456293
C           5.3534165     1.1229008    -0.6633285
H           5.9043949     1.4598199    -1.5380968
17
325_C7H9N_0-4-12-10 (165,) energy =    -326.9096009
C           1.5682616    -0.9403974    -1.0889290
H           1.2739554     0.0405248    -1.4978851
H           0.6648241    -1.5340832    -0.9262083
H           2.1685299    -1.4557472    -1.8477101
N           2.2962836    -0.8512438     0.1623279
H           1.7105302    -0.8503809     0.9863467
C           5.7954576     1.4611853     0.6137320
H           6.7011591     2.0473045     0.7383560
C           5.0872076     0.9993892     1.7279071
H           5.4409836     1.2267270     2.7305853
C           3.9278487     0.2489725     1.5715530
H           3.3896025    -0.1111636     2.4465016
C           3.4382885    -0.0635019     0.2868967
C           4.1501024     0.4080209    -0.8310865
H           3.7986640     0.1901041    -1.8341211
C           5.3157805     1.1564559    -0.6591564
H           5.8489097     1.5083169    -1.5391349
17
325_C7H9N_0-4-12-10 (180,) energy =    -326.9089830
C           1.6028774    -0.9951869    -1.1040674
H           1.2732963    -0.0944168    -1.6490849
H           0.7297571    -1.6315167    -0.9361623
H           2.2969408    -1.5446100    -1.7513784
N           2.2228556    -0.7114991     0.1704174
H           1.6118426    -0.6960137     0.9734835
C           5.8266170     1.4272093     0.6153325
H           6.7605137     1.9675552     0.7386332
C           5.1259501     0.9537912     1.7298545
H           5.5162299     1.1224703     2.7306353
C           3.9347156     0.2551744     1.5763014
H           3.4074921    -0.1237895     2.4497986
C           3.3946556     0.0229913     0.2939757
C           4.1022849     0.5013237    -0.8244609
H           3.7140185     0.3416551    -1.8249701
C           5.3046273     1.1901667    -0.6552310
H           5.8320957     1.5507598    -1.5351503
