16
294_C7H5F3O_0-4-11-9 (-165,) energy =    -644.5042486
C           1.5742815    -1.2851592    -0.4313194
F           2.0965147    -1.7369593    -1.5922697
F           0.2467620    -1.3578359    -0.5190228
F           1.9891789    -2.1190504     0.5408696
O           1.8944325     0.0062298    -0.1833754
C           5.7338651     1.3849658     0.7134200
H           6.7197280     1.7715401     0.9539626
C           4.5966396     2.1597675     0.9524987
H           4.6904709     3.1537981     1.3804640
C           3.3310064     1.6628429     0.6491404
H           2.4327641     2.2437527     0.8308862
C           3.2114153     0.3869018     0.1004285
C           4.3337701    -0.4001441    -0.1552684
H           4.2403041    -1.3851097    -0.5937691
C           5.5943742     0.1116650     0.1622113
H           6.4723975    -0.4982360    -0.0309844
16
294_C7H5F3O_0-4-11-9 (-150,) energy =    -644.5042698
C           1.5699126    -1.2731183    -0.4095907
F           2.1132015    -1.9301146    -1.4598198
F           0.2441742    -1.3211024    -0.5389090
F           1.9229698    -1.9436336     0.7014249
O           1.9291547     0.0316163    -0.3692753
C           5.7248225     1.3670025     0.7522565
H           6.7013900     1.7404214     1.0459521
C           4.5788132     2.1259557     0.9991510
H           4.6571089     3.0935907     1.4866238
C           3.3239974     1.6445077     0.6297473
H           2.4186827     2.2122770     0.8177171
C           3.2278592     0.4032682     0.0043454
C           4.3598274    -0.3648826    -0.2641824
H           4.2766993    -1.3200942    -0.7669864
C           5.6080752     0.1269839     0.1238874
H           6.4943827    -0.4683867    -0.0765694
16
294_C7H5F3O_0-4-11-9 (-135,) energy =    -644.5042544
C           1.5535332    -1.2423837    -0.3668909
F           2.1543854    -2.1022732    -1.2220838
F           0.2446013    -1.2668875    -0.6191268
F           1.7676619    -1.7084122     0.8759116
O           1.9768161     0.0339531    -0.5255603
C           5.7203654     1.3550418     0.7744359
H           6.6861507     1.7239920     1.1071203
C           4.5596589     2.0817100     1.0476872
H           4.6162516     3.0183686     1.5949302
C           3.3180880     1.6071075     0.6257944
H           2.4010321     2.1498383     0.8301162
C           3.2538477     0.4065971    -0.0763902
C           4.4008877    -0.3278840    -0.3726040
H           4.3346051    -1.2508045    -0.9351552
C           5.6347779     0.1542361     0.0685125
H           6.5340935    -0.4136738    -0.1525461
16
294_C7H5F3O_0-4-11-9 (-120,) energy =    -644.5043835
C           1.5219977    -1.2057042    -0.3064855
F           2.2146399    -2.2323815    -0.8495596
F           0.2695764    -1.2706344    -0.7588273
F           1.5143770    -1.3982492     1.0249829
O           2.0197479     0.0056931    -0.6519240
C           5.7117433     1.3349261     0.7807185
H           6.6672390     1.7030169     1.1429999
C           4.5342144     2.0165804     1.0948861
H           4.5685051     2.9163444     1.7025253
C           3.3051801     1.5448764     0.6331339
H           2.3758315     2.0550717     0.8639591
C           3.2731977     0.3908759    -0.1441104
C           4.4373430    -0.2959119    -0.4829715
H           4.3876669    -1.1792500    -1.1078974
C           5.6588586     0.1826837    -0.0056838
H           6.5728042    -0.3466365    -0.2598974
16
294_C7H5F3O_0-4-11-9 (-105,) energy =    -644.5045887
C           1.4992577    -1.1559579    -0.2628523
F           2.2435446    -2.2643223    -0.4651153
F           0.3278062    -1.3213069    -0.8770775
F           1.2831453    -1.0641764     1.0630008
O           2.0761237    -0.0397972    -0.7703894
C           5.7080349     1.3147518     0.7825414
H           6.6516894     1.6855511     1.1722454
C           4.5115659     1.9418183     1.1369028
H           4.5205235     2.7998821     1.8029642
C           3.2966402     1.4699511     0.6381111
H           2.3536766     1.9403229     0.8962544
C           3.3017762     0.3703688    -0.2144980
C           4.4836086    -0.2647614    -0.5870521
H           4.4508048    -1.1108461    -1.2639554
C           5.6913865     0.2145555    -0.0773307
H           6.6207718    -0.2721518    -0.3590622
16
294_C7H5F3O_0-4-11-9 (-90,) energy =    -644.5046489
C           1.4535676    -1.1113378    -0.2334236
F           2.1879903    -2.2339517    -0.1026582
F           0.3726036    -1.3933621    -0.9607199
F           1.0557793    -0.7544244     1.0046117
O           2.1290519    -0.1213980    -0.8660907
C           5.6942809     1.2945978     0.7811968
H           6.6232671     1.6784190     1.1929123
C           4.4756890     1.8530407     1.1729367
H           4.4533101     2.6699099     1.8886672
C           3.2779079     1.3681586     0.6454106
H           2.3196170     1.7879818     0.9313521
C           3.3252001     0.3239473    -0.2733248
C           4.5284699    -0.2473052    -0.6763493
H           4.5210651    -1.0582601    -1.3965820
C           5.7191922     0.2464085    -0.1415245
H           6.6659217    -0.1885240    -0.4490210
16
294_C7H5F3O_0-4-11-9 (-75,) energy =    -644.5045405
C           1.4086827    -1.0418762    -0.1923124
F           2.0742248    -2.1195067     0.2635886
F           0.4243418    -1.4517801    -0.9926043
F           0.8553643    -0.4374970     0.8817941
O           2.2019238    -0.2103644    -0.9097664
C           5.7155868     1.2953618     0.7728076
H           6.6344855     1.6961961     1.1908837
C           4.4803959     1.7791235     1.2088463
H           4.4354713     2.5575043     1.9652452
C           3.2942941     1.2739745     0.6736333
H           2.3274283     1.6455694     0.9925250
C           3.3701489     0.2763771    -0.2952761
C           4.5906046    -0.2187862    -0.7439699
H           4.6040447    -0.9930756    -1.5038754
C           5.7686518     0.2993465    -0.2045756
H           6.7272606    -0.0784308    -0.5485320
16
294_C7H5F3O_0-4-11-9 (-60,) energy =    -644.5043256
C           1.3709908    -0.9688351    -0.1499259
F           1.9321966    -1.9060011     0.6347808
F           0.5100030    -1.5588470    -0.9796297
F           0.6676794    -0.1447648     0.6602727
O           2.2820414    -0.3108258    -0.9054742
C           5.7495919     1.3194597     0.7593279
H           6.6597399     1.7474181     1.1693909
C           4.5053761     1.7231545     1.2466521
H           4.4438884     2.4681241     2.0349215
C           3.3280532     1.1856804     0.7229123
H           2.3585549     1.5055567     1.0845301
C           3.4225010     0.2277349    -0.2847826
C           4.6532369    -0.1866371    -0.7855334
H           4.6806918    -0.9304565    -1.5749974
C           5.8204540     0.3675502    -0.2598758
H           6.7848878     0.0502955    -0.6461402
16
294_C7H5F3O_0-4-11-9 (-45,) energy =    -644.5042524
C           1.3246481    -0.9309909    -0.1405054
F           1.7551268    -1.6931434     0.8798914
F           0.5506763    -1.6698124    -0.9359676
F           0.5552532     0.0471335     0.3915027
O           2.3391569    -0.4443282    -0.8935843
C           5.7467581     1.3333875     0.7428896
H           6.6441606     1.7958811     1.1432663
C           4.4973280     1.6492854     1.2782642
H           4.4185114     2.3605155     2.0956039
C           3.3343284     1.0686338     0.7685475
H           2.3631854     1.3268560     1.1720098
C           3.4493597     0.1516726    -0.2749773
C           4.6864103    -0.1758430    -0.8235911
H           4.7298544    -0.8904161    -1.6389383
C           5.8371537     0.4232045    -0.3122275
H           6.8047565     0.1717083    -0.7370703
16
294_C7H5F3O_0-4-11-9 (-30,) energy =    -644.5042684
C           1.2925312    -0.8986566    -0.1272982
F           1.5897080    -1.5054055     1.0357159
F           0.5520153    -1.7240342    -0.8667076
F           0.5370829     0.1830794     0.1702389
O           2.3940023    -0.5827304    -0.8482815
C           5.7428762     1.3534374     0.7271976
H           6.6282198     1.8500087     1.1131266
C           4.4955704     1.5966413     1.3024422
H           4.4053234     2.2860132     2.1371816
C           3.3463602     0.9703290     0.8148301
H           2.3790627     1.1755472     1.2554936
C           3.4740748     0.0818044    -0.2519676
C           4.7110133    -0.1739771    -0.8403799
H           4.7669350    -0.8707635    -1.6702655
C           5.8454995     0.4692329    -0.3488850
H           6.8110078     0.2725229    -0.8062393
16
294_C7H5F3O_0-4-11-9 (-15,) energy =    -644.5042434
C           1.2800599    -0.8637450    -0.1584886
F           1.4226954    -1.3639912     1.0834925
F           0.5423731    -1.7095377    -0.8765764
F           0.5974703     0.2960864    -0.0438582
O           2.4623903    -0.7119886    -0.7992841
C           5.7456798     1.3857789     0.7058647
H           6.6166939     1.9198824     1.0737201
C           4.5047429     1.5615608     1.3170828
H           4.4042307     2.2355129     2.1631663
C           3.3731712     0.8841540     0.8560448
H           2.4142206     1.0386162     1.3332339
C           3.5114331     0.0179390    -0.2279319
C           4.7435115    -0.1705039    -0.8526470
H           4.8088434    -0.8532409    -1.6934680
C           5.8594060     0.5186911    -0.3832016
H           6.8198065     0.3724296    -0.8692870
16
294_C7H5F3O_0-4-11-9 (0,) energy =    -644.5042185
C           1.2588946    -0.8245204    -0.1845545
F           1.2381726    -1.2254448     1.1028337
F           0.5147860    -1.6669108    -0.8997196
F           0.6849758     0.3949347    -0.2302390
O           2.5040372    -0.8347504    -0.7136848
C           5.7350345     1.4152422     0.6805306
H           6.5934370     1.9872944     1.0196827
C           4.5094858     1.5347612     1.3343753
H           4.4082616     2.2011141     2.1863682
C           3.3939573     0.8068061     0.9124127
H           2.4503907     0.9116497     1.4314127
C           3.5308975    -0.0467186    -0.1819113
C           4.7483661    -0.1795370    -0.8485723
H           4.8127945    -0.8544572    -1.6957100
C           5.8492862     0.5542789    -0.4134263
H           6.7976823     0.4507502    -0.9328269
16
294_C7H5F3O_0-4-11-9 (15,) energy =    -644.5042434
C           1.2542136    -0.7880232    -0.2207815
F           1.0660165    -1.0763909     1.0852443
F           0.5153049    -1.6302398    -0.9418103
F           0.7988510     0.4634227    -0.4198703
O           2.5413546    -0.9432856    -0.6090020
C           5.7251459     1.4459370     0.6563752
H           6.5710814     2.0535022     0.9637956
C           4.5209808     1.5140041     1.3562067
H           4.4251187     2.1743330     2.2134975
C           3.4229803     0.7382592     0.9760680
H           2.4980137     0.7931736     1.5351524
C           3.5529973    -0.1038028    -0.1277785
C           4.7488622    -0.1861666    -0.8397616
H           4.8091236    -0.8540490    -1.6928029
C           5.8350777     0.5899646    -0.4418354
H           6.7672145     0.5264952    -0.9960311
16
294_C7H5F3O_0-4-11-9 (30,) energy =    -644.5042684
C           1.2420028    -0.7506334    -0.2490772
F           0.9033924    -0.8899282     1.0529685
F           0.5150850    -1.6158408    -0.9557206
F           0.9052810     0.4994733    -0.6136480
O           2.5464143    -1.0291710    -0.4810096
C           5.7037118     1.4681698     0.6328141
H           6.5421640     2.1020978     0.9057445
C           4.5309411     1.4930365     1.3876765
H           4.4534331     2.1450882     2.2531181
C           3.4453712     0.6803071     1.0534224
H           2.5439060     0.6926827     1.6527311
C           3.5523380    -0.1474377    -0.0633773
C           4.7154245    -0.1868831    -0.8297611
H           4.7587254    -0.8466957    -1.6900641
C           5.7934015     0.6218555    -0.4744398
H           6.7017772     0.5925050    -1.0694747
16
294_C7H5F3O_0-4-11-9 (45,) energy =    -644.5042524
C           1.2617716    -0.7467968    -0.2920403
F           0.7981409    -0.6643376     0.9768078
F           0.5562566    -1.6861445    -0.9225356
F           1.0265304     0.4411213    -0.8759153
O           2.5655796    -1.1075663    -0.3479582
C           5.6945417     1.4863546     0.6170498
H           6.5259863     2.1420562     0.8584801
C           4.5600875     1.4654557     1.4294967
H           4.5062968     2.1033765     2.3071461
C           3.4868272     0.6219342     1.1360349
H           2.6138484     0.5926062     1.7760561
C           3.5646430    -0.1860104     0.0028247
C           4.6880502    -0.1806320    -0.8196503
H           4.7091692    -0.8298063    -1.6887993
C           5.7571349     0.6576144    -0.5050680
H           6.6362910     0.6652033    -1.1430523
16
294_C7H5F3O_0-4-11-9 (60,) energy =    -644.5043256
C           1.2906336    -0.7334351    -0.3435848
F           0.7387130    -0.3528292     0.8314399
F           0.5767922    -1.7544765    -0.8186927
F           1.1763173     0.3081821    -1.1867705
O           2.5704392    -1.1556058    -0.2104972
C           5.6865558     1.5041206     0.6074132
H           6.5129068     2.1775420     0.8155409
C           4.6051146     1.4310044     1.4869965
H           4.5883513     2.0449639     2.3830444
C           3.5402238     0.5641877     1.2341976
H           2.7052555     0.4899895     1.9200092
C           3.5733052    -0.2139978     0.0786189
C           4.6431587    -0.1571019    -0.8098309
H           4.6311250    -0.7852470    -1.6944571
C           5.7050196     0.7057009    -0.5380624
H           6.5442994     0.7550560    -1.2259264
16
294_C7H5F3O_0-4-11-9 (75,) energy =    -644.5045405
C           1.3088936    -0.7495552    -0.4327980
F           0.7211709    -0.0443951     0.5583991
F           0.5470905    -1.8113313    -0.6968115
F           1.3348598     0.0462997    -1.5181646
O           2.5403267    -1.2016228    -0.0942854
C           5.6435746     1.5063181     0.5992605
H           6.4647029     2.1935483     0.7817265
C           4.6165319     1.3803576     1.5369008
H           4.6368819     1.9675318     2.4506001
C           3.5599033     0.4959473     1.3136953
H           2.7602981     0.3775911     2.0356563
C           3.5495634    -0.2491619     0.1370707
C           4.5634089    -0.1391084    -0.8095183
H           4.5183229    -0.7419584    -1.7104625
C           5.6166634     0.7445752    -0.5708524
H           6.4145817     0.8375037    -1.3020456
16
294_C7H5F3O_0-4-11-9 (90,) energy =    -644.5046489
C           1.3343760    -0.7621789    -0.5206648
F           0.7364092     0.1811156     0.2349709
F           0.5143307    -1.8085058    -0.6191873
F           1.5049797    -0.2332219    -1.7486049
O           2.4971183    -1.1995475     0.0208757
C           5.6221200     1.5059913     0.6072888
H           6.4475395     2.1931870     0.7694257
C           4.6518273     1.3371015     1.5973861
H           4.7191841     1.8911119     2.5293634
C           3.5903459     0.4529618     1.3983192
H           2.8268835     0.3020818     2.1537631
C           3.5216929    -0.2516172     0.2001775
C           4.4773125    -0.0974381    -0.7996405
H           4.3877046    -0.6676001    -1.7179669
C           5.5337290     0.7896928    -0.5884701
H           6.2881313     0.9181363    -1.3594412
16
294_C7H5F3O_0-4-11-9 (105,) energy =    -644.5045887
C           1.3663565    -0.7666439    -0.5831303
F           0.7980030     0.3569422    -0.1061148
F           0.4765927    -1.7571285    -0.5185396
F           1.6552764    -0.5411172    -1.8827487
O           2.4521621    -1.1412994     0.1357876
C           5.6413375     1.5101392     0.6218013
H           6.4814550     2.1842254     0.7619994
C           4.7281263     1.3074697     1.6587646
H           4.8539872     1.8230932     2.6065426
C           3.6476837     0.4416656     1.4840543
H           2.9255080     0.2652912     2.2742585
C           3.5005618    -0.2119131     0.2645296
C           4.4036670    -0.0305782    -0.7797087
H           4.2650162    -0.5666080    -1.7116859
C           5.4773035     0.8416740    -0.5932446
H           6.1888344     0.9931197    -1.3999674
16
294_C7H5F3O_0-4-11-9 (120,) energy =    -644.5043835
C           1.3808682    -0.7922862    -0.6465940
F           0.8838992     0.4485960    -0.4943675
F           0.4081863    -1.6766457    -0.4248143
F           1.7627020    -0.9085229    -1.9386625
O           2.3833284    -1.0593164     0.2242303
C           5.6528153     1.5075538     0.6387028
H           6.5107927     2.1613008     0.7659829
C           4.7894545     1.2689270     1.7099607
H           4.9715304     1.7357884     2.6737373
C           3.6851984     0.4317153     1.5489015
H           2.9985865     0.2308711     2.3646797
C           3.4614589    -0.1605779     0.3095556
C           4.3189556     0.0508892    -0.7682754
H           4.1351619    -0.4395829    -1.7164016
C           5.4144281     0.8986977    -0.5947289
H           6.0876833     1.0744233    -1.4289645
16
294_C7H5F3O_0-4-11-9 (135,) energy =    -644.5042544
C           1.4132594    -0.8314724    -0.7049368
F           1.0328683     0.4440030    -0.8948225
F           0.3441271    -1.5584127    -0.3792988
F           1.8764936    -1.2882391    -1.8917673
O           2.3171563    -0.9629816     0.2945909
C           5.6699430     1.5027535     0.6529181
H           6.5464702     2.1331640     0.7705064
C           4.8511714     1.2278040     1.7501730
H           5.0856143     1.6434922     2.7260044
C           3.7224198     0.4227240     1.6001551
H           3.0671909     0.1984941     2.4354344
C           3.4293981    -0.1076246     0.3466465
C           4.2404970     0.1419545    -0.7591268
H           4.0076488    -0.2930510    -1.7230726
C           5.3594073     0.9608813    -0.5950920
H           5.9948575     1.1659029    -1.4520204
16
294_C7H5F3O_0-4-11-9 (150,) energy =    -644.5042697
C           1.4291825    -0.8608710    -0.7487343
F           1.1330868     0.3701514    -1.2020631
F           0.2979894    -1.4787287    -0.4092319
F           1.9806671    -1.5418784    -1.7792107
O           2.2258503    -0.8374701     0.3456995
C           5.6853218     1.4827233     0.6570558
H           6.5851430     2.0809525     0.7658055
C           4.8998845     1.1854671     1.7728655
H           5.1837243     1.5510105     2.7556627
C           3.7405632     0.4242907     1.6335871
H           3.1102042     0.1866430     2.4841519
C           3.3802331    -0.0430622     0.3715296
C           4.1567281     0.2300600    -0.7536255
H           3.8782158    -0.1528208    -1.7272704
C           5.3084552     1.0046610    -0.5981539
H           5.9156798     1.2267963    -1.4711511
16
294_C7H5F3O_0-4-11-9 (165,) energy =    -644.5042486
C           1.4352047    -0.8777554    -0.7664782
F           1.1741928     0.2682685    -1.4231118
F           0.2800267    -1.4552653    -0.4388688
F           2.0811735    -1.6920100    -1.6292471
O           2.1277494    -0.6772047     0.3788687
C           5.7121921     1.4484638     0.6611812
H           6.6417572     1.9999492     0.7660557
C           4.9428791     1.1455548     1.7868639
H           5.2689231     1.4593741     2.7744206
C           3.7475676     0.4426390     1.6529695
H           3.1303144     0.2004594     2.5118491
C           3.3296008     0.0407177     0.3852253
C           4.0865193     0.3241293    -0.7511084
H           3.7675443    -0.0002616    -1.7330460
C           5.2786991     1.0363711    -0.5985199
H           5.8709099     1.2636888    -1.4804732
16
294_C7H5F3O_0-4-11-9 (180,) energy =    -644.5042181
C           1.4563964    -0.9077356    -0.7650364
F           1.2054247     0.1223035    -1.5983015
F           0.2977405    -1.4814595    -0.4437978
F           2.1989856    -1.8009434    -1.4500784
O           2.0469284    -0.5147220     0.3871206
C           5.7422135     1.4115130     0.6676090
H           6.6996114     1.9128548     0.7734099
C           4.9790275     1.1056905     1.7968159
H           5.3377405     1.3669222     2.7883321
C           3.7509837     0.4624826     1.6623209
H           3.1405372     0.2144417     2.5244059
C           3.2902611     0.1272473     0.3896386
C           4.0357470     0.4226557    -0.7513414
H           3.6802730     0.1627988    -1.7396966
C           5.2653214     1.0680814    -0.5967005
H           5.8501922     1.3006538    -1.4821779
