27
389_C13H12FN_0-3-22-20 (-165,) energy =    -657.1945250
C           0.9588946    -0.8087122     0.1018369
H           1.1130815    -1.1317898     1.1404854
H           0.5630020     0.2164655     0.1511873
N           2.2395636    -0.8822387    -0.5889568
H           2.1397293    -0.9015533    -1.5973320
C          -2.0035034    -3.3944519    -1.7255069
H          -2.7533867    -4.0364868    -2.1787400
C          -0.6723413    -3.8089452    -1.6462762
H          -0.3787820    -4.7792534    -2.0361723
C           0.2842984    -2.9778145    -1.0625011
H           1.3210722    -3.2946753    -0.9978373
C          -0.0603467    -1.7196712    -0.5497307
C          -1.4015670    -1.3428327    -0.6433978
F          -1.7789502    -0.1375824    -0.1520376
C          -2.3756119    -2.1492967    -1.2191669
H          -3.3994134    -1.7924096    -1.2626627
C           5.6359388     1.2936748     0.6609562
H           6.5191440     1.8411657     0.9764509
C           5.5705062     0.7225895    -0.6139604
H           6.4076399     0.8235587    -1.3002711
C           4.4416077     0.0205654    -1.0194517
H           4.4055925    -0.4275006    -2.0106415
C           3.3366352    -0.1294173    -0.1578003
C           3.4022261     0.4548437     1.1192945
H           2.5653617     0.3736669     1.8045290
C           4.5453228     1.1512611     1.5168418
H           4.5724066     1.5933981     2.5097678
27
389_C13H12FN_0-3-22-20 (-150,) energy =    -657.1940622
C           0.9572632    -0.8374620     0.0755335
H           1.0375665    -1.0810970     1.1429044
H           0.5983022     0.2004071     0.0196314
N           2.2748848    -1.0047453    -0.5352102
H           2.2076943    -1.0667313    -1.5457280
C          -1.9867841    -3.4717474    -1.7117622
H          -2.7324808    -4.1250955    -2.1556620
C          -0.6744726    -3.9147113    -1.5338248
H          -0.3917235    -4.9185662    -1.8372003
C           0.2770834    -3.0688170    -0.9629247
H           1.2994833    -3.4071304    -0.8228793
C          -0.0541339    -1.7675819    -0.5607195
C          -1.3767560    -1.3629662    -0.7515493
F          -1.7391576    -0.1145134    -0.3686065
C          -2.3454548    -2.1829630    -1.3170922
H          -3.3543800    -1.8027795    -1.4394725
C           5.5905622     1.3400943     0.6343461
H           6.4514484     1.9326551     0.9294625
C           5.4706825     0.8625983    -0.6735940
H           6.2402544     1.0852237    -1.4085361
C           4.3648732     0.1098094    -1.0547665
H           4.2816276    -0.2537545    -2.0774374
C           3.3495603    -0.2011662    -0.1299967
C           3.4694861     0.2903555     1.1818033
H           2.7009743     0.0801009     1.9182206
C           4.5814228     1.0478311     1.5513911
H           4.6519888     1.4148220     2.5723685
27
389_C13H12FN_0-3-22-20 (-135,) energy =    -657.1931151
C           0.9271508    -0.6726350    -0.1343814
H           0.9262732    -0.7074403     0.9612622
H           0.6097787     0.3443836    -0.4089269
N           2.2798439    -0.9800041    -0.6048369
H           2.2871760    -1.0620276    -1.6174964
C          -2.0095447    -3.5061779    -1.6023025
H          -2.7549221    -4.2072103    -1.9669685
C          -0.6909402    -3.9175181    -1.3995746
H          -0.4026924    -4.9445732    -1.6042763
C           0.2615048    -3.0105606    -0.9317460
H           1.2892098    -3.3223976    -0.7728943
C          -0.0769104    -1.6790342    -0.6586794
C          -1.4061162    -1.3070529    -0.8700460
F          -1.7713442    -0.0277651    -0.6081580
C          -2.3751636    -2.1863928    -1.3351589
H          -3.3892297    -1.8284331    -1.4802056
C           5.5991182     1.2945868     0.7022690
H           6.4589373     1.8685264     1.0351237
C           5.4387894     0.9741435    -0.6467878
H           6.1744099     1.3013894    -1.3772600
C           4.3293728     0.2485288    -1.0751859
H           4.2075435     0.0172107    -2.1319165
C           3.3618090    -0.1970626    -0.1580109
C           3.5285095     0.1290436     1.1994433
H           2.8030049    -0.2084321     1.9330684
C           4.6339165     0.8680312     1.6166106
H           4.7422788     1.1067255     2.6716904
27
389_C13H12FN_0-3-22-20 (-120,) energy =    -657.1921994
C           0.9627870    -0.5908677    -0.3385184
H           0.9261349    -0.4356481     0.7459934
H           0.6910020     0.3753728    -0.7904412
N           2.3264241    -1.0051792    -0.6905206
H           2.3980937    -1.1059325    -1.7000942
C          -2.0304791    -3.5306291    -1.4370526
H          -2.7906634    -4.2569218    -1.7103826
C          -0.7138760    -3.9356681    -1.2114520
H          -0.4419571    -4.9829946    -1.3070644
C           0.2583856    -2.9964294    -0.8618561
H           1.2855505    -3.3007886    -0.6871190
C          -0.0589399    -1.6391287    -0.7314017
C          -1.3868990    -1.2738725    -0.9614777
F          -1.7282598     0.0329237    -0.8350711
C          -2.3752462    -2.1840174    -1.3112268
H          -3.3872970    -1.8298467    -1.4782149
C           5.5713841     1.2785767     0.7829155
H           6.4094867     1.8554221     1.1631766
C           5.3795035     1.1320446    -0.5909698
H           6.0663288     1.6001338    -1.2915910
C           4.2951953     0.4026565    -1.0791265
H           4.1414648     0.3112501    -2.1528095
C           3.3983361    -0.2224856    -0.1993752
C           3.6012612    -0.0775419     1.1834251
H           2.9292656    -0.5734535     1.8782498
C           4.6720622     0.6720074     1.6641128
H           4.8128945     0.7707513     2.7374845
27
389_C13H12FN_0-3-22-20 (-105,) energy =    -657.1909206
C           1.0121778    -0.6159321    -0.3922534
H           0.9449145    -0.3789813     0.6768036
H           0.8045062     0.3258343    -0.9231734
N           2.3723139    -1.1158517    -0.6496827
H           2.4768876    -1.2684764    -1.6511198
C          -2.0632754    -3.4996505    -1.4087971
H          -2.8434985    -4.2115378    -1.6629887
C          -0.7766699    -3.9415780    -1.0959797
H          -0.5484896    -5.0036027    -1.1041679
C           0.2213397    -3.0206468    -0.7711889
H           1.2260989    -3.3529338    -0.5300820
C          -0.0395904    -1.6452134    -0.7531253
C          -1.3389232    -1.2427681    -1.0686999
F          -1.6266453     0.0829344    -1.0528706
C          -2.3518842    -2.1341787    -1.3958341
H          -3.3391269    -1.7512417    -1.6331172
C           5.5145060     1.3337964     0.7880599
H           6.3228446     1.9553608     1.1626933
C           5.2415211     1.2837120    -0.5790674
H           5.8330094     1.8722353    -1.2757546
C           4.1949873     0.4950408    -1.0602097
H           3.9717514     0.4753952    -2.1252633
C           3.4299596    -0.2851518    -0.1822690
C           3.7134551    -0.2345272     1.1911419
H           3.1320328    -0.8518373     1.8705134
C           4.7409210     0.5746809     1.6707963
H           4.9498835     0.6000225     2.7372473
27
389_C13H12FN_0-3-22-20 (-90,) energy =    -657.1893529
C           1.0337397    -0.6587165    -0.4094933
H           0.9265328    -0.3513180     0.6390409
H           0.8846841     0.2539732    -1.0072370
N           2.3859271    -1.2222727    -0.5643776
H           2.5184951    -1.4512455    -1.5489816
C          -2.0904502    -3.5009105    -1.3937403
H          -2.8821290    -4.2025642    -1.6409045
C          -0.8380065    -3.9625540    -0.9854346
H          -0.6482135    -5.0295923    -0.9114461
C           0.1750390    -3.0548874    -0.6700350
H           1.1535673    -3.4023956    -0.3543157
C          -0.0364593    -1.6734659    -0.7564298
C          -1.3029573    -1.2510681    -1.1656777
F          -1.5436178     0.0812055    -1.2531497
C          -2.3298072    -2.1289901    -1.4860133
H          -3.2894077    -1.7308629    -1.7995214
C           5.4625372     1.3725960     0.7697619
H           6.2511509     2.0321517     1.1213181
C           5.0640152     1.4048918    -0.5672972
H           5.5377865     2.0945113    -1.2611888
C           4.0441592     0.5639535    -1.0163653
H           3.7227921     0.6031417    -2.0554140
C           3.4357305    -0.3450694    -0.1403691
C           3.8405138    -0.3724727     1.2005555
H           3.3699726    -1.0849703     1.8723436
C           4.8424790     0.4849130     1.6529014
H           5.1508477     0.4496629     2.6945814
27
389_C13H12FN_0-3-22-20 (-75,) energy =    -657.1899770
C           0.9673221    -0.8060693     0.2204347
H           0.9584019    -1.0298511     1.3002790
H           0.7960456     0.2693451     0.1174413
N           2.2709749    -1.1031776    -0.4027964
H           2.5284211    -2.0638434    -0.1877716
C          -2.1679586    -2.9866820    -1.8162737
H          -2.9486733    -3.5299669    -2.3411349
C          -1.7630551    -3.3892059    -0.5434637
H          -2.2262581    -4.2491451    -0.0686108
C          -0.7579077    -2.6817271     0.1210763
H          -0.4435839    -2.9923570     1.1151987
C          -0.1421046    -1.5698451    -0.4618361
C          -0.5778439    -1.1960812    -1.7362706
F          -0.0198576    -0.1102709    -2.3173639
C          -1.5740287    -1.8767652    -2.4219651
H          -1.8707176    -1.5328234    -3.4074553
C           5.4828406     1.5243316     0.4280336
H           6.3117234     2.1992211     0.6224611
C           4.4220904     1.9248969    -0.3904687
H           4.4299464     2.9124025    -0.8448733
C           3.3677225     1.0552599    -0.6563229
H           2.5630966     1.3412231    -1.3282606
C           3.3372742    -0.2229350    -0.0753428
C           4.4037888    -0.6209914     0.7423420
H           4.3954299    -1.6128030     1.1908445
C           5.4726039     0.2446725     0.9829088
H           6.2941370    -0.0821447     1.6153911
27
389_C13H12FN_0-3-22-20 (-60,) energy =    -657.1912538
C           0.9404398    -0.8563101     0.3812111
H           0.8231251    -1.0695602     1.4561464
H           0.8193667     0.2225502     0.2591308
N           2.2833558    -1.2096290    -0.1041426
H           2.5493001    -2.1328364     0.2244953
C          -2.0923886    -2.9243363    -1.9145538
H          -2.8464338    -3.4387031    -2.5035616
C          -1.8135684    -3.3370488    -0.6115217
H          -2.3491199    -4.1763237    -0.1775281
C          -0.8421117    -2.6665748     0.1363812
H          -0.6270333    -2.9844613     1.1543837
C          -0.1349537    -1.5828832    -0.3929556
C          -0.4459017    -1.1982722    -1.6998708
F           0.2050007    -0.1375528    -2.2322119
C          -1.4056304    -1.8410967    -2.4684738
H          -1.6034118    -1.4895887    -3.4758483
C           5.4695529     1.5448435     0.2596961
H           6.2916050     2.2504982     0.3383259
C           4.2960827     1.8968742    -0.4138128
H           4.2079346     2.8778695    -0.8740707
C           3.2436938     0.9929162    -0.5304310
H           2.3565205     1.2482843    -1.1026050
C           3.3330618    -0.2807465     0.0588002
C           4.5144820    -0.6306079     0.7306745
H           4.5979456    -1.6151509     1.1874707
C           5.5748343     0.2717076     0.8202324
H           6.4817538    -0.0213203     1.3433236
27
389_C13H12FN_0-3-22-20 (-45,) energy =    -657.1924113
C           0.9232945    -0.4530930    -0.2688288
H           0.8011086    -0.2994053     0.8160085
H           0.7392837     0.5088077    -0.7557661
N           2.2816770    -0.8976131    -0.6104370
H           2.3890691    -1.8888743    -0.4188715
C          -1.9402200    -3.3630786    -1.7064952
H          -2.6528062    -4.0941246    -2.0778197
C          -1.5610049    -3.3681540    -0.3633692
H          -1.9769559    -4.1028598     0.3196794
C          -0.6455890    -2.4218880     0.1022466
H          -0.3538637    -2.4200296     1.1501846
C          -0.0944092    -1.4589350    -0.7509821
C          -0.4985609    -1.4869391    -2.0883543
F           0.0028589    -0.5620675    -2.9349227
C          -1.4086565    -2.4132706    -2.5807929
H          -1.6862807    -2.3782575    -3.6291782
C           5.6774188     1.2732163     0.6646959
H           6.5579852     1.8265675     0.9776508
C           4.5476769     1.9443011     0.1931526
H           4.5472669     3.0297797     0.1314339
C           3.4148650     1.2423416    -0.2148691
H           2.5572326     1.7855641    -0.5992120
C           3.3831868    -0.1619096    -0.1430747
C           4.5246554    -0.8315483     0.3333911
H           4.5182534    -1.9185631     0.3923296
C           5.6568549    -0.1216199     0.7253358
H           6.5252432    -0.6651084     1.0893804
27
389_C13H12FN_0-3-22-20 (-30,) energy =    -657.1935238
C           0.9165838    -0.4093170    -0.3919442
H           0.7461244    -0.1312404     0.6614338
H           0.7720312     0.4941406    -0.9930936
N           2.2776819    -0.9039436    -0.6103262
H           2.3556644    -1.8966466    -0.4196653
C          -1.9280582    -3.4282729    -1.6282698
H          -2.6360588    -4.1874661    -1.9483034
C          -1.5885168    -3.3054509    -0.2799482
H          -2.0310306    -3.9677990     0.4581592
C          -0.6791182    -2.3241158     0.1194063
H          -0.4181585    -2.2222267     1.1704185
C          -0.0944694    -1.4515128    -0.8061857
C          -0.4586816    -1.6070252    -2.1461981
F           0.0776114    -0.7738522    -3.0637244
C          -1.3623284    -2.5713942    -2.5738837
H          -1.6082688    -2.6368009    -3.6286855
C           5.6707589     1.2389047     0.7033471
H           6.5515999     1.7844415     1.0287716
C           4.4892879     1.9141479     0.3981728
H           4.4452280     2.9971850     0.4834786
C           3.3517732     1.2226659    -0.0195658
H           2.4484208     1.7748758    -0.2571062
C           3.3762858    -0.1785924    -0.1381171
C           4.5724590    -0.8546147     0.1720485
H           4.6086342    -1.9387928     0.0817026
C           5.7007466    -0.1534475     0.5839012
H           6.6100229    -0.7015884     0.8181238
27
389_C13H12FN_0-3-22-20 (-15,) energy =    -657.1938680
C           0.9119343    -0.4095584    -0.4035883
H           0.6775761    -0.0612579     0.6169517
H           0.8315341     0.4589697    -1.0665565
N           2.2657769    -0.9426455    -0.4995233
H           2.3307474    -1.9321915    -0.2975618
C          -1.9309550    -3.4344795    -1.6303521
H          -2.6386162    -4.1952174    -1.9474532
C          -1.6701440    -3.2365267    -0.2734624
H          -2.1739807    -3.8417605     0.4742907
C          -0.7606203    -2.2536119     0.1216910
H          -0.5606733    -2.0926626     1.1786365
C          -0.0977397    -1.4539435    -0.8169498
C          -0.3842470    -1.6833204    -2.1652363
F           0.2284835    -0.9220842    -3.0972306
C          -1.2862796    -2.6509807    -2.5889427
H          -1.4699598    -2.7754088    -3.6510931
C           5.6803123     1.2481156     0.6566194
H           6.5668730     1.8050271     0.9450636
C           4.4552494     1.8939409     0.4997509
H           4.3801760     2.9654942     0.6684384
C           3.3083840     1.1866587     0.1341772
H           2.3684442     1.7171871     0.0250747
C           3.3728510    -0.1998078    -0.0949136
C           4.6146752    -0.8476231     0.0672855
H           4.6805370    -1.9196567    -0.1085283
C           5.7466911    -0.1318595     0.4377565
H           6.6911127    -0.6574354     0.5561158
27
389_C13H12FN_0-3-22-20 (0,) energy =    -657.1937790
C           0.9556531    -0.3154175    -0.9166197
H           0.6362011     0.4285374    -0.1734929
H           1.0956478     0.2320116    -1.8611002
N           2.1791008    -0.9281731    -0.4310939
H           2.4051947    -1.8168922    -0.8585142
C          -2.2152299    -3.2276025    -1.4437533
H          -3.0141567    -3.9504693    -1.5820739
C          -1.3414250    -3.3389225    -0.3600349
H          -1.4574746    -4.1493267     0.3537693
C          -0.3177816    -2.4063792    -0.1900770
H           0.3657254    -2.4882091     0.6499235
C          -0.1393097    -1.3481933    -1.0916073
C          -1.0354821    -1.2687475    -2.1593102
F          -0.9028783    -0.2561867    -3.0502778
C          -2.0639965    -2.1825063    -2.3547525
H          -2.7222797    -2.0629005    -3.2090437
C           5.5433683     1.2721881     0.8498457
H           6.4125042     1.8282700     1.1886156
C           4.4064752     1.9391253     0.3977856
H           4.3868920     3.0259860     0.3739206
C           3.2870366     1.2334066    -0.0488552
H           2.4267921     1.7800528    -0.4203445
C           3.2786244    -0.1724194    -0.0223751
C           4.4341283    -0.8411051     0.4300992
H           4.4402997    -1.9289369     0.4537356
C           5.5477550    -0.1268296     0.8549883
H           6.4254044    -0.6676967     1.2003628
27
389_C13H12FN_0-3-22-20 (15,) energy =    -657.1945136
C           0.9450070    -0.3188322    -0.8623952
H           0.5777954     0.4603411    -0.1803281
H           1.1684745     0.1837245    -1.8152309
N           2.1230042    -0.9279279    -0.2601287
H           2.3406768    -1.8376963    -0.6495575
C          -2.2200412    -3.2159621    -1.4901622
H          -3.0172240    -3.9352179    -1.6548698
C          -1.4245882    -3.2919428    -0.3448931
H          -1.6005703    -4.0712919     0.3908621
C          -0.4027969    -2.3639146    -0.1414627
H           0.2189833    -2.4179871     0.7473400
C          -0.1484790    -1.3456877    -1.0706088
C          -0.9678306    -1.3004582    -2.2002548
F          -0.7603727    -0.3263248    -3.1191328
C          -1.9925486    -2.2105079    -2.4295525
H          -2.5889006    -2.1190410    -3.3314579
C           5.5748809     1.2785531     0.7595522
H           6.4657529     1.8355952     1.0341243
C           4.3895907     1.9425897     0.4496536
H           4.3517953     3.0288243     0.4778651
C           3.2400085     1.2366079     0.0888727
H           2.3375689     1.7840101    -0.1609795
C           3.2560260    -0.1684821     0.0452427
C           4.4588109    -0.8339408     0.3566511
H           4.4846521    -1.9215737     0.3281165
C           5.5980618    -0.1189522     0.7060751
H           6.5124073    -0.6585018     0.9403639
27
389_C13H12FN_0-3-22-20 (30,) energy =    -657.1941872
C           0.9377549    -0.3166633    -0.8019049
H           0.5522641     0.5086180    -0.1890051
H           1.2151058     0.1192548    -1.7724862
N           2.0807344    -0.9076337    -0.1085624
H           2.2965039    -1.8314045    -0.4683434
C          -2.2479757    -3.2003719    -1.3808231
H          -3.0500998    -3.9166904    -1.5340048
C          -1.5019097    -3.2155621    -0.2004343
H          -1.7214700    -3.9444827     0.5742679
C          -0.4733810    -2.2917395    -0.0122578
H           0.1112469    -2.2993559     0.9029427
C          -0.1637470    -1.3379766    -0.9917172
C          -0.9342895    -1.3522650    -2.1559715
F          -0.6721164    -0.4415272    -3.1246611
C          -1.9642668    -2.2598757    -2.3708714
H          -2.5211341    -2.2170993    -3.3011934
C           5.5920935     1.2860556     0.7344841
H           6.4973694     1.8396677     0.9654023
C           4.3694517     1.9444405     0.6079771
H           4.3162303     3.0220516     0.7420985
C           3.2009527     1.2430191     0.3083602
H           2.2653739     1.7844953     0.2159745
C           3.2365110    -0.1507012     0.1262513
C           4.4749273    -0.8091180     0.2531927
H           4.5192389    -1.8881321     0.1165072
C           5.6324218    -0.0993817     0.5543132
H           6.5747603    -0.6340859     0.6440333
27
389_C13H12FN_0-3-22-20 (45,) energy =    -657.1933017
C           1.0411227    -0.4019573    -0.9889033
H           0.6779666     0.5320812    -0.5439126
H           1.4029560    -0.1436913    -1.9949192
N           2.1034163    -0.9374877    -0.1339437
H           2.3596954    -1.8728113    -0.4365166
C          -2.3006201    -3.1419401    -1.3496351
H          -3.1415568    -3.8221589    -1.4503035
C          -1.5527920    -3.1116849    -0.1710183
H          -1.8097637    -3.7687288     0.6548496
C          -0.4730566    -2.2355800    -0.0494967
H           0.1144797    -2.2077384     0.8631041
C          -0.1146266    -1.3754840    -1.0956783
C          -0.8889907    -1.4324261    -2.2562341
F          -0.5767343    -0.6085150    -3.2866430
C          -1.9681760    -2.2937940    -2.4063437
H          -2.5245971    -2.2880856    -3.3379315
C           5.5625688     1.3177309     0.7818129
H           6.4523020     1.8878301     1.0324478
C           4.3073049     1.9282279     0.7724479
H           4.2138348     2.9819417     1.0232229
C           3.1594050     1.2041041     0.4547352
H           2.1936793     1.6993412     0.4736561
C           3.2474894    -0.1590813     0.1215708
C           4.5154241    -0.7672329     0.1313377
H           4.6020311    -1.8219521    -0.1239228
C           5.6547922    -0.0384017     0.4629120
H           6.6220349    -0.5346548     0.4619456
27
389_C13H12FN_0-3-22-20 (60,) energy =    -657.1923850
C           1.1899179    -0.5658196    -1.1780567
H           0.9107755     0.4614782    -0.9172017
H           1.6219812    -0.5142419    -2.1889157
N           2.1590339    -1.0381902    -0.1818835
H           2.4699030    -1.9742536    -0.4297826
C          -2.3968209    -2.9996929    -1.3203154
H          -3.2986714    -3.6033743    -1.3684590
C          -1.6429576    -2.9470107    -0.1466672
H          -1.9559133    -3.5100872     0.7279636
C          -0.4840886    -2.1701677    -0.0924247
H           0.1106987    -2.1256595     0.8145019
C          -0.0526994    -1.4332384    -1.2019743
C          -0.8351580    -1.5089750    -2.3559931
F          -0.4484124    -0.8005017    -3.4462689
C          -1.9912885    -2.2731198    -2.4408238
H          -2.5498285    -2.2883160    -3.3710674
C           5.4888257     1.3749653     0.8191626
H           6.3420524     1.9889463     1.0925514
C           4.1890125     1.8721895     0.9464946
H           4.0267624     2.8764477     1.3297470
C           3.0897182     1.0872088     0.6075702
H           2.0838960     1.4725280     0.7486954
C           3.2714032    -0.2126778     0.1049256
C           4.5792332    -0.7063043    -0.0203838
H           4.7354911    -1.7122354    -0.4058091
C           5.6746485     0.0774354     0.3419823
H           6.6778681    -0.3280664     0.2379406
27
389_C13H12FN_0-3-22-20 (75,) energy =    -657.1910940
C           1.2372372    -0.6258422    -1.1617461
H           0.9829667     0.4288557    -0.9980984
H           1.7349574    -0.6671778    -2.1426800
N           2.1242555    -1.0426932    -0.0642122
H           2.4319212    -1.9970708    -0.2415154
C          -2.4147029    -2.9567100    -1.3514758
H          -3.3318045    -3.5358444    -1.4119728
C          -1.7283946    -2.8430570    -0.1412744
H          -2.1097800    -3.3339098     0.7495849
C          -0.5496675    -2.0979002    -0.0711779
H          -0.0060096    -2.0059428     0.8637641
C          -0.0307591    -1.4543667    -1.2011329
C          -0.7471910    -1.5890112    -2.3921394
F          -0.2754775    -0.9716122    -3.5042812
C          -1.9212781    -2.3231890    -2.4930479
H          -2.4255272    -2.3878269    -3.4517672
C           5.4817380     1.4057659     0.7538415
H           6.3400490     2.0317105     0.9809655
C           4.1903150     1.8372037     1.0706514
H           4.0418171     2.7987239     1.5554380
C           3.0886593     1.0305017     0.7963177
H           2.0889178     1.3478459     1.0801856
C           3.2569164    -0.2123014     0.1655936
C           4.5540814    -0.6401965    -0.1489708
H           4.6973724    -1.6049750    -0.6320098
C           5.6577778     0.1596633     0.1524338
H           6.6564737    -0.1910992    -0.0948229
27
389_C13H12FN_0-3-22-20 (90,) energy =    -657.1894232
C           1.2642469    -0.6681089    -1.1382250
H           1.0268820     0.4020555    -1.0752921
H           1.8218527    -0.7973205    -2.0789324
N           2.0680322    -1.0081442     0.0483022
H           2.3597178    -1.9809377    -0.0396568
C          -2.4228761    -2.9383301    -1.3806829
H          -3.3479062    -3.5031162    -1.4548198
C          -1.8068380    -2.7492635    -0.1425221
H          -2.2513883    -3.1664389     0.7565950
C          -0.6175681    -2.0227716    -0.0547637
H          -0.1285401    -1.8714515     0.9022661
C          -0.0180391    -1.4732793    -1.1943992
C          -0.6660026    -1.6815700    -2.4136693
F          -0.1147302    -1.1560375    -3.5363941
C          -1.8485359    -2.3991475    -2.5328820
H          -2.2965613    -2.5241862    -3.5133243
C           5.4829172     1.4189657     0.6988654
H           6.3550599     2.0402654     0.8828160
C           4.2341862     1.7920743     1.2032160
H           4.1339491     2.7021219     1.7890682
C           3.1177619     0.9869237     0.9834815
H           2.1500780     1.2495312     1.4017597
C           3.2281342    -0.1874273     0.2269594
C           4.4826117    -0.5576481    -0.2754424
H           4.5785034    -1.4736406    -0.8553129
C           5.6044629     0.2374373    -0.0334962
H           6.5725778    -0.0653549    -0.4240940
27
389_C13H12FN_0-3-22-20 (105,) energy =    -657.1897915
C           1.5822411    -1.7133778     0.1366534
H           2.2495284    -2.5852611     0.2412247
H           1.4699346    -1.2765095     1.1329018
N           2.1566204    -0.6706109    -0.7358321
H           2.3923514    -1.0874093    -1.6338583
C          -2.2871880    -2.9194629    -1.3808292
H          -3.2620183    -3.2073244    -1.7642315
C          -1.1913278    -3.7692168    -1.5331508
H          -1.3060272    -4.7248011    -2.0363847
C           0.0571711    -3.3876176    -1.0351635
H           0.9117942    -4.0510440    -1.1494053
C           0.2381620    -2.1648675    -0.3812547
C          -0.8843596    -1.3431056    -0.2461272
F          -0.7470286    -0.1647457     0.4018821
C          -2.1377808    -1.6935224    -0.7280560
H          -2.9708503    -1.0127187    -0.5865207
C           5.4433536     1.4577099     0.8729152
H           6.2794609     2.0136389     1.2878505
C           5.6557430     0.5121853    -0.1307222
H           6.6613369     0.3221903    -0.4975140
C           4.5832119    -0.2112184    -0.6555852
H           4.7567413    -0.9622436    -1.4241225
C           3.2762189     0.0304736    -0.2096903
C           3.0680063     0.9876781     0.7955235
H           2.0510642     1.1854580     1.1233259
C           4.1443319     1.6868583     1.3363496
H           3.9665848     2.4282783     2.1111941
27
389_C13H12FN_0-3-22-20 (120,) energy =    -657.1910387
C           1.5288224    -1.6511431     0.2209267
H           2.1369186    -2.5464315     0.4333065
H           1.3770237    -1.1364690     1.1726648
N           2.2151707    -0.7184757    -0.6882930
H           2.4549851    -1.1960626    -1.5529268
C          -2.3010619    -2.7718376    -1.4548052
H          -3.2648780    -3.0383011    -1.8792951
C          -1.2390411    -3.6755794    -1.4961100
H          -1.3696745    -4.6521751    -1.9529415
C          -0.0044295    -3.3213620    -0.9460533
H           0.8233304    -4.0268454    -0.9727244
C           0.1956732    -2.0723924    -0.3497629
C          -0.8931012    -1.1965970    -0.3253944
F          -0.7363018     0.0089872     0.2653058
C          -2.1322654    -1.5187617    -0.8609892
H          -2.9394701    -0.7956584    -0.8057881
C           5.4972184     1.5038605     0.7882689
H           6.3350271     2.0845050     1.1635481
C           5.6667010     0.6344200    -0.2894236
H           6.6422299     0.5284972    -0.7574622
C           4.5941187    -0.1215667    -0.7633346
H           4.7396662    -0.8127439    -1.5916192
C           3.3211659     0.0032169    -0.1857860
C           3.1535921     0.8899644     0.8916431
H           2.1642919     1.0210741     1.3210522
C           4.2341227     1.6226769     1.3755345
H           4.0840465     2.3058117     2.2077824
27
389_C13H12FN_0-3-22-20 (135,) energy =    -657.1922084
C           1.2653977    -1.2462350     0.3965897
H           1.8687116    -2.0471513     0.8549979
H           0.9222480    -0.5949826     1.2052049
N           2.0513852    -0.4420544    -0.5501582
H           2.1585721    -0.9382956    -1.4295141
C          -2.1584372    -2.9258337    -1.6508714
H          -3.0196574    -3.3364336    -2.1702977
C          -1.0238926    -3.7102953    -1.4384066
H          -0.9952378    -4.7372458    -1.7904331
C           0.0760803    -3.1713683    -0.7676256
H           0.9587036    -3.7833534    -0.5951118
C           0.0695832    -1.8530568    -0.2975084
C          -1.0842737    -1.0999334    -0.5300628
F          -1.1291002     0.1709356    -0.0757222
C          -2.1948252    -1.6079997    -1.1913534
H          -3.0629442    -0.9730739    -1.3350794
C           5.7174249     1.2803429     0.6637863
H           6.6576756     1.7304526     0.9685803
C           5.6098346     0.6236743    -0.5635552
H           6.4717166     0.5539707    -1.2225812
C           4.4075249     0.0354607    -0.9493451
H           4.3396584    -0.4858711    -1.9026008
C           3.2701677     0.1150108    -0.1261840
C           3.3856253     0.7743196     1.1105308
H           2.5221597     0.8555413     1.7634105
C           4.5971689     1.3460180     1.4946761
H           4.6615158     1.8537501     2.4538995
27
389_C13H12FN_0-3-22-20 (150,) energy =    -657.1934035
C           1.1760589    -1.1349324     0.3925348
H           1.7315534    -1.8841406     0.9807373
H           0.7771877    -0.3992970     1.0983104
N           2.0442078    -0.4443047    -0.5642141
H           2.1236600    -0.9544515    -1.4367487
C          -2.0970000    -3.0128639    -1.7277056
H          -2.9200900    -3.4745266    -2.2657078
C          -0.9786827    -3.7672477    -1.3690439
H          -0.9249963    -4.8212697    -1.6249334
C           0.0718983    -3.1632309    -0.6755485
H           0.9414867    -3.7505079    -0.3891540
C           0.0315686    -1.8080393    -0.3265013
C          -1.1039036    -1.0866607    -0.7043882
F          -1.1803784     0.2201722    -0.3727164
C          -2.1660883    -1.6597216    -1.3920485
H          -3.0226589    -1.0461717    -1.6513289
C           5.7378157     1.2245418     0.6233068
H           6.6871750     1.6609264     0.9194364
C           5.5531698     0.7366082    -0.6733289
H           6.3638237     0.7876880    -1.3960495
C           4.3402229     0.1710029    -1.0524506
H           4.2100247    -0.2090671    -2.0641661
C           3.2662973     0.0919834    -0.1447495
C           3.4598500     0.5758094     1.1616268
H           2.6545126     0.5251907     1.8871176
C           4.6827499     1.1362711     1.5312564
H           4.8069720     1.5065009     2.5459874
27
389_C13H12FN_0-3-22-20 (165,) energy =    -657.1938818
C           1.1686609    -1.1424602     0.3938292
H           1.6547342    -1.8745437     1.0611047
H           0.7808167    -0.3370454     1.0270840
N           2.1093661    -0.5685962    -0.5623574
H           2.1895115    -1.1017500    -1.4191873
C          -2.1050557    -3.0104180    -1.7346954
H          -2.9279643    -3.4697755    -2.2749476
C          -1.0418984    -3.7893496    -1.2750793
H          -1.0312258    -4.8603951    -1.4541135
C           0.0087378    -3.1876985    -0.5794968
H           0.8350297    -3.7935080    -0.2144790
C           0.0229066    -1.8105190    -0.3286065
C          -1.0581405    -1.0647820    -0.8058717
F          -1.0819344     0.2647371    -0.5707516
C          -2.1190768    -1.6348357    -1.4979305
H          -2.9323153    -1.0015296    -1.8369869
C           5.7140190     1.2843471     0.6098034
H           6.6409098     1.7700583     0.9001541
C           5.5008259     0.8921667    -0.7157033
H           6.2659924     1.0719837    -1.4669384
C           4.3154052     0.2712247    -1.0907269
H           4.1574060    -0.0220299    -2.1268623
C           3.3016155     0.0202872    -0.1437543
C           3.5222188     0.4108701     1.1894888
H           2.7656196     0.2302863     1.9456959
C           4.7155769     1.0387275     1.5508589
H           4.8617029     1.3327870     2.5874228
27
389_C13H12FN_0-3-22-20 (180,) energy =    -657.1938956
C           0.9263788    -0.7503497     0.0830635
H           1.1617022    -1.1078176     1.0952514
H           0.4679814     0.2427378     0.2050759
N           2.1664194    -0.7130964    -0.6725253
H           2.0431116    -0.6905957    -1.6769017
C          -1.9806494    -3.4238878    -1.7098636
H          -2.7165788    -4.0883332    -2.1535860
C          -0.6259943    -3.7631790    -1.7170401
H          -0.3001120    -4.6972516    -2.1653993
C           0.3124080    -2.9036184    -1.1450750
H           1.3673929    -3.1613984    -1.1480637
C          -0.0737021    -1.6909510    -0.5580299
C          -1.4369791    -1.3894249    -0.5668100
F          -1.8536793    -0.2298629    -0.0024276
C          -2.3941495    -2.2252870    -1.1289528
H          -3.4370487    -1.9266359    -1.1041637
C           5.6693888     1.1972082     0.7009298
H           6.5807252     1.6738145     1.0497992
C           5.6283346     0.5711298    -0.5495958
H           6.5138580     0.5549496    -1.1802015
C           4.4667801    -0.0478157    -0.9949140
H           4.4505069    -0.5515868    -1.9592188
C           3.2980725    -0.0408230    -0.2065692
C           3.3421570     0.5936682     1.0471975
H           2.4581534     0.6289163     1.6749204
C           4.5212292     1.1975284     1.4901999
H           4.5303611     1.6826860     2.4632060
