27
389_C13H12FN_11-0-3-22 (-165,) energy =    -657.1940661
C           0.9101194    -0.5536161    -0.0104882
H           1.0791960    -0.7760910     1.0505074
H           0.4561114     0.4479722    -0.0467760
N           2.1925135    -0.6193987    -0.6891100
H           2.1204708    -0.6050306    -1.6990042
C          -1.9272071    -3.4561330    -1.5425313
H          -2.6472272    -4.1767132    -1.9197781
C          -0.5642633    -3.7589350    -1.5287720
H          -0.2155111    -4.7205108    -1.8941984
C           0.3545187    -2.8271577    -1.0436134
H           1.4160300    -3.0552915    -1.0320689
C          -0.0612083    -1.5782098    -0.5646172
C          -1.4320778    -1.3143014    -0.5907974
F          -1.8736602    -0.1188492    -0.1277895
C          -2.3697529    -2.2208966    -1.0686840
H          -3.4200765    -1.9483822    -1.0632436
C           5.7709453     1.1023260     0.7451016
H           6.7009797     1.5315313     1.1056909
C           5.6714470     0.6134929    -0.5613413
H           6.5290864     0.6596443    -1.2279618
C           4.4826683     0.0623128    -1.0240328
H           4.4211225    -0.3253021    -2.0392175
C           3.3480429    -0.0158631    -0.1905067
C           3.4483032     0.4911096     1.1175193
H           2.5920186     0.4749016     1.7829254
C           4.6515841     1.0339078     1.5723889
H           4.7026128     1.4172952     2.5885563
27
389_C13H12FN_11-0-3-22 (-150,) energy =    -657.1929622
C           0.7904495    -0.3541373    -0.1631860
H           0.9404085    -0.4492701     0.9174789
H           0.2736941     0.6048982    -0.3151875
N           2.0901676    -0.3961159    -0.8030241
H           2.0614305    -0.3706412    -1.8138339
C          -1.8395633    -3.5748342    -1.4086806
H          -2.5087583    -4.3743199    -1.7136153
C          -0.4563544    -3.7620749    -1.4339196
H          -0.0405039    -4.7118942    -1.7575879
C           0.3973069    -2.7291951    -1.0425579
H           1.4741673    -2.8661799    -1.0631698
C          -0.1055838    -1.4932933    -0.6194585
C          -1.4939810    -1.3459303    -0.6042714
F          -2.0154669    -0.1632965    -0.1924082
C          -2.3684689    -2.3534752    -0.9894798
H          -3.4372813    -2.1689222    -0.9563109
C           5.7749417     0.8995866     0.8003995
H           6.7316247     1.2199969     1.2018477
C           5.6508537     0.5362701    -0.5438505
H           6.5163669     0.5715682    -1.2009445
C           4.4272304     0.1249329    -1.0584822
H           4.3477302    -0.1641046    -2.1049322
C           3.2789220     0.0634764    -0.2411846
C           3.4062380     0.4447859     1.1071828
H           2.5463862     0.4390101     1.7682434
C           4.6432134     0.8482036     1.6124102
H           4.7119655     1.1353622     2.6588639
27
389_C13H12FN_11-0-3-22 (-135,) energy =    -657.1927612
C           0.8619841    -0.2089776    -0.6688658
H           0.8885146     0.1088058     0.3779666
H           0.4029753     0.6301955    -1.2118940
N           2.2276310    -0.4337378    -1.1252066
H           2.3340923    -0.2976580    -2.1230771
C          -1.7849156    -3.6290069    -1.0241286
H          -2.4613265    -4.4747888    -1.1089475
C          -0.4075919    -3.8093409    -1.1574557
H          -0.0037988    -4.7999503    -1.3463708
C           0.4573999    -2.7174251    -1.0493136
H           1.5302374    -2.8443802    -1.1553115
C          -0.0318516    -1.4310531    -0.8064864
C          -1.4145271    -1.2911411    -0.6765043
F          -1.9093703    -0.0498243    -0.4354144
C          -2.3001521    -2.3539377    -0.7805113
H          -3.3644565    -2.1728667    -0.6704636
C           5.6825767     0.7616298     0.9937566
H           6.5775872     1.0599099     1.5315280
C           5.6430029     0.8061253    -0.4013251
H           6.5109154     1.1447550    -0.9616779
C           4.4926146     0.4332338    -1.0911570
H           4.4710111     0.4868804    -2.1782681
C           3.3488050    -0.0093604    -0.4011550
C           3.3995964    -0.0678073     1.0035888
H           2.5495071    -0.4429232     1.5653157
C           4.5517608     0.3224745     1.6841449
H           4.5648550     0.2690509     2.7699539
27
389_C13H12FN_11-0-3-22 (-120,) energy =    -657.1932708
C           0.8292429    -0.0841906    -0.8829777
H           0.8293007     0.3725316     0.1132528
H           0.3360188     0.6500735    -1.5345370
N           2.2044542    -0.2814028    -1.3221621
H           2.3542584    -0.0397496    -2.2929763
C          -1.6568908    -3.6398292    -0.7956892
H          -2.2939680    -4.5193469    -0.7696457
C          -0.2901989    -3.7642089    -1.0479706
H           0.1446285    -4.7448393    -1.2192522
C           0.5242927    -2.6290884    -1.0819599
H           1.5881173    -2.7119626    -1.2814287
C          -0.0065358    -1.3554142    -0.8645091
C          -1.3767667    -1.2714214    -0.6135083
F          -1.9078802    -0.0399719    -0.3981741
C          -2.2129560    -2.3774065    -0.5752666
H          -3.2707410    -2.2394485    -0.3759655
C           5.5743631     0.5657754     1.0767719
H           6.4466877     0.7775229     1.6878684
C           5.6187683     0.7369857    -0.3087757
H           6.5299398     1.0888558    -0.7861799
C           4.4992643     0.4743994    -1.0932624
H           4.5434358     0.6253027    -2.1704889
C           3.3020389     0.0207668    -0.5092795
C           3.2668734    -0.1670647     0.8845294
H           2.3708602    -0.5569974     1.3579276
C           4.3906683     0.1125894     1.6608642
H           4.3386533    -0.0390128     2.7361871
27
389_C13H12FN_11-0-3-22 (-105,) energy =    -657.1941308
C           0.8096141     0.0240420    -1.0872095
H           0.7551329     0.6009430    -0.1545681
H           0.2905497     0.6340082    -1.8375317
N           2.1973655    -0.1330582    -1.4991929
H           2.3913457     0.2275746    -2.4233313
C          -1.4629758    -3.6397271    -0.5910688
H          -2.0476236    -4.5463618    -0.4634290
C          -0.1253219    -3.7103684    -0.9816857
H           0.3394565    -4.6759713    -1.1594025
C           0.6219966    -2.5407277    -1.1453179
H           1.6627722    -2.5825400    -1.4506856
C           0.0515747    -1.2855588    -0.9214636
C          -1.2879518    -1.2552946    -0.5312414
F          -1.8567207    -0.0414076    -0.3126406
C          -2.0576623    -2.3965567    -0.3618442
H          -3.0948163    -2.3000936    -0.0574127
C           5.4481131     0.3567605     1.1475122
H           6.2898481     0.4782685     1.8227699
C           5.5898441     0.6159196    -0.2181632
H           6.5470093     0.9460514    -0.6141775
C           4.5116688     0.4668769    -1.0851777
H           4.6329909     0.6812018    -2.1456106
C           3.2573664     0.0458327    -0.6053724
C           3.1212923    -0.2270834     0.7677248
H           2.1751978    -0.5885260     1.1584058
C           4.2076733    -0.0649028     1.6272185
H           4.0788204    -0.2808346     2.6849401
27
389_C13H12FN_11-0-3-22 (-90,) energy =    -657.1945828
C           0.7582218     0.1145003    -1.2789756
H           0.6153882     0.7808591    -0.4154010
H           0.2297161     0.5915231    -2.1132525
N           2.1634270     0.0267958    -1.6407050
H           2.3977259     0.4893886    -2.5076512
C          -1.2350985    -3.6488176    -0.4414685
H          -1.7499507    -4.5813616    -0.2284291
C           0.0648518    -3.6583484    -0.9488242
H           0.5700823    -4.6020908    -1.1331586
C           0.7223028    -2.4557636    -1.2203072
H           1.7339604    -2.4515080    -1.6134080
C           0.0990742    -1.2267690    -0.9890147
C          -1.2013715    -1.2570504    -0.4829440
F          -1.8269581    -0.0723499    -0.2604310
C          -1.8814404    -2.4336454    -0.2041194
H          -2.8919713    -2.3845071     0.1883575
C           5.2963798     0.1563973     1.1838105
H           6.1088482     0.1856663     1.9037811
C           5.5254819     0.4652337    -0.1600726
H           6.5227589     0.7411926    -0.4936662
C           4.4861213     0.4305410    -1.0835574
H           4.6767525     0.6762360    -2.1268613
C           3.1812640     0.0812072    -0.6851084
C           2.9544855    -0.2337273     0.6664635
H           1.9648797    -0.5288981     0.9986218
C           4.0063371    -0.1919974     1.5825773
H           3.8073163    -0.4398287     2.6222876
27
389_C13H12FN_11-0-3-22 (-75,) energy =    -657.1937943
C           0.6908934     0.1971348    -1.4244391
H           0.4334721     0.9179727    -0.6332695
H           0.1856612     0.5534619    -2.3300980
N           2.1133187     0.2046777    -1.6989785
H           2.3924503     0.6560935    -2.5566089
C          -1.0442170    -3.6349746    -0.3488106
H          -1.4941672    -4.5859323    -0.0780864
C           0.2077479    -3.5948483    -0.9649068
H           0.7402681    -4.5176511    -1.1762453
C           0.7817466    -2.3692147    -1.3087585
H           1.7580696    -2.3288374    -1.7812809
C           0.1240216    -1.1643569    -1.0436676
C          -1.1271136    -1.2448844    -0.4305475
F          -1.7911328    -0.0884721    -0.1745418
C          -1.7243665    -2.4467582    -0.0761583
H          -2.6994865    -2.4359548     0.3999025
C           5.1608760    -0.0216766     1.2060887
H           5.9530834    -0.0813015     1.9464415
C           5.4540194     0.2804461    -0.1271281
H           6.4817885     0.4611811    -0.4323281
C           4.4417828     0.3557022    -1.0771271
H           4.6832346     0.5902587    -2.1124505
C           3.0975855     0.1303129    -0.7176083
C           2.8051842    -0.1709293     0.6250808
H           1.7826901    -0.3572228     0.9338489
C           3.8326121    -0.2449575     1.5665597
H           3.5819228    -0.4805097     2.5979659
27
389_C13H12FN_11-0-3-22 (-60,) energy =    -657.1937137
C           0.6400731     0.1669737    -1.6682709
H           0.2361714     0.9210864    -0.9881670
H           0.2214986     0.3877985    -2.6565414
N           2.0818968     0.3558750    -1.7825277
H           2.4675445     0.0090604    -2.6516494
C          -0.7069316    -3.7660787    -0.3914618
H          -1.0464149    -4.7464075    -0.0696680
C           0.0200122    -3.6241812    -1.5765208
H           0.2477085    -4.4947349    -2.1847212
C           0.4500623    -2.3611261    -1.9796710
H           1.0173076    -2.2557043    -2.9023129
C           0.1749502    -1.2148559    -1.2222006
C          -0.5546853    -1.4011676    -0.0489781
F          -0.8460267    -0.3194712     0.7208199
C          -0.9983794    -2.6453030     0.3841878
H          -1.5576230    -2.7157258     1.3114080
C           4.8059057     0.0035236     1.4238347
H           5.5166030    -0.0723968     2.2415271
C           5.2351246    -0.0915898     0.0972823
H           6.2883428    -0.2425988    -0.1265250
C           4.3250953     0.0025436    -0.9502120
H           4.6729122    -0.0678737    -1.9794575
C           2.9532624     0.1981753    -0.6992797
C           2.5234380     0.2883738     0.6365354
H           1.4735874     0.4246616     0.8693869
C           3.4477652     0.1926794     1.6775661
H           3.0916389     0.2635860     2.7024444
27
389_C13H12FN_11-0-3-22 (-45,) energy =    -657.1921548
C           0.5818614     0.2187888    -1.7459515
H           0.0658782     0.9698968    -1.1404842
H           0.2152509     0.3442220    -2.7700737
N           2.0135101     0.5366802    -1.7831983
H           2.4321832     0.3000770    -2.6747940
C          -0.5362325    -3.7214425    -0.2892112
H          -0.8216052    -4.7037853     0.0760879
C           0.2237504    -3.5944193    -1.4550470
H           0.5321173    -4.4789386    -2.0047017
C           0.5824004    -2.3284306    -1.9143594
H           1.1756448    -2.2333536    -2.8214577
C           0.2028565    -1.1639378    -1.2330785
C          -0.5542637    -1.3363821    -0.0752052
F          -0.9401809    -0.2382413     0.6260223
C          -0.9299611    -2.5829497     0.4117899
H          -1.5166098    -2.6411809     1.3227700
C           4.6994857    -0.2093030     1.3897864
H           5.3992132    -0.3851863     2.2015748
C           5.1317364    -0.2339791     0.0617477
H           6.1757333    -0.4307783    -0.1694854
C           4.2342865    -0.0157726    -0.9794041
H           4.5836916    -0.0398304    -2.0103697
C           2.8761331     0.2417100    -0.7177349
C           2.4451390     0.2706742     0.6203929
H           1.4058705     0.4723862     0.8552452
C           3.3529523     0.0433763     1.6543941
H           2.9966289     0.0674657     2.6813343
27
389_C13H12FN_11-0-3-22 (-30,) energy =    -657.1892757
C           0.5669798     0.2396333    -1.8285505
H          -0.0693726     0.9813407    -1.3349974
H           0.3005128     0.2609797    -2.8900426
N           1.9737633     0.6808001    -1.7460695
H           2.4321900     0.5944358    -2.6454873
C          -0.4202809    -3.6611078    -0.1922105
H          -0.6756597    -4.6343492     0.2170708
C           0.3610470    -3.5629276    -1.3465504
H           0.7166824    -4.4609627    -1.8431244
C           0.6796125    -2.3084546    -1.8632767
H           1.2882373    -2.2347868    -2.7618954
C           0.2385475    -1.1269925    -1.2512256
C          -0.5360153    -1.2708838    -0.1008446
F          -0.9751390    -0.1554027     0.5378642
C          -0.8741202    -2.5053324     0.4410216
H          -1.4785852    -2.5410615     1.3414290
C           4.6542332    -0.3759935     1.3437670
H           5.3510761    -0.6312392     2.1368268
C           5.0801632    -0.3217971     0.0153197
H           6.1159082    -0.5371635    -0.2355927
C           4.1845823    -0.0048941    -1.0032734
H           4.5269831     0.0242713    -2.0365551
C           2.8385444     0.2803132    -0.7147055
C           2.4169033     0.2391752     0.6264646
H           1.3892752     0.4783825     0.8780994
C           3.3182066    -0.0944203     1.6357400
H           2.9695030    -0.1246071     2.6651276
27
389_C13H12FN_11-0-3-22 (-15,) energy =    -657.1860518
C           0.5609904     0.2215851    -1.8978121
H          -0.1859817     0.9420438    -1.5475095
H           0.4317131     0.1399473    -2.9821654
N           1.9161760     0.7824871    -1.6689130
H           2.4040523     0.8798790    -2.5514830
C          -0.3920415    -3.6206784    -0.1195181
H          -0.6429018    -4.5803270     0.3233073
C           0.4175337    -3.5575292    -1.2564211
H           0.8001746    -4.4691968    -1.7057411
C           0.7287840    -2.3204212    -1.8180879
H           1.3568448    -2.2733019    -2.7047577
C           0.2524703    -1.1223517    -1.2677868
C          -0.5472133    -1.2312676    -0.1305930
F          -1.0135728    -0.0969822     0.4515602
C          -0.8801593    -2.4473475     0.4535122
H          -1.5070600    -2.4559201     1.3391044
C           4.6405983    -0.4826162     1.3038984
H           5.3475887    -0.7895071     2.0692696
C           5.0531014    -0.3257930    -0.0200968
H           6.0879305    -0.5132378    -0.2960087
C           4.1432254     0.0559814    -1.0043279
H           4.4731231     0.1592841    -2.0369615
C           2.7990660     0.3099981    -0.6820343
C           2.3937072     0.1722818     0.6579965
H           1.3707001     0.4027912     0.9349956
C           3.3056579    -0.2321080     1.6302943
H           2.9697231    -0.3363985     2.6590937
27
389_C13H12FN_11-0-3-22 (0,) energy =    -657.1835782
C           1.8771635    -2.6043202     0.8988836
H           2.1824640    -3.6066718     0.5751910
H           1.4187095    -2.7181152     1.8875394
N           3.1083370    -1.7801199     1.0382345
H           3.9220361    -2.3812008     0.9773299
C          -1.2184459    -1.2666993    -1.8268787
H          -2.0049715    -0.9426401    -2.5024092
C          -0.1352298    -2.0059094    -2.3074716
H          -0.0730438    -2.2623975    -3.3608910
C           0.8651285    -2.4215036    -1.4296111
H           1.7050105    -3.0017681    -1.8042412
C           0.8187043    -2.1113211    -0.0636553
C          -0.2764590    -1.3653567     0.3720439
F          -0.3481628    -1.0183996     1.6816147
C          -1.2928623    -0.9392269    -0.4733921
H          -2.1160216    -0.3626014    -0.0644386
C           3.9141439     1.8615923    -0.9533498
H           4.1324882     2.8032138    -1.4489841
C           4.7954065     0.7848435    -1.0586147
H           5.7076872     0.8805078    -1.6423540
C           4.5079825    -0.4275055    -0.4328659
H           5.1927324    -1.2675764    -0.5382891
C           3.3408106    -0.5829777     0.3340716
C           2.4712943     0.5154593     0.4598032
H           1.5959086     0.4299964     1.0938561
C           2.7522323     1.7141252    -0.1914648
H           2.0642543     2.5490822    -0.0834018
27
389_C13H12FN_11-0-3-22 (15,) energy =    -657.1860519
C           1.8612467    -2.5555450     0.9472611
H           2.0805111    -3.6138561     0.7709065
H           1.4260950    -2.4897501     1.9503012
N           3.1623646    -1.8410924     0.9384627
H           3.9090334    -2.4844195     0.7037323
C          -1.1816995    -1.3064663    -1.8835732
H          -1.9520571    -1.0004867    -2.5856283
C          -0.0942763    -2.0694563    -2.3164397
H          -0.0135884    -2.3628894    -3.3589454
C           0.8855456    -2.4597050    -1.4051720
H           1.7298939    -3.0559747    -1.7434189
C           0.8150317    -2.1018455    -0.0516608
C          -0.2837129    -1.3356123     0.3358697
F          -0.3831075    -0.9450132     1.6322271
C          -1.2802742    -0.9319831    -0.5443844
H          -2.1066755    -0.3355474    -0.1719905
C           3.9132820     1.8988245    -0.8809289
H           4.1193120     2.8639844    -1.3346141
C           4.7701776     0.8180768    -1.0940730
H           5.6513701     0.9343012    -1.7202770
C           4.4990366    -0.4234410    -0.5219232
H           5.1664172    -1.2633699    -0.7089064
C           3.3709891    -0.6082116     0.2958031
C           2.5229738     0.4904127     0.5257382
H           1.6699415     0.3803035     1.1865111
C           2.7902742     1.7212619    -0.0693419
H           2.1190868     2.5557440     0.1185135
27
389_C13H12FN_11-0-3-22 (30,) energy =    -657.1892757
C           1.8389640    -2.4829439     0.9782130
H           1.9784297    -3.5684298     0.9559473
H           1.4601510    -2.2402439     1.9763441
N           3.1813822    -1.8898042     0.8151910
H           3.8284329    -2.5639433     0.4234901
C          -1.2142417    -1.3815272    -1.9084601
H          -1.9839536    -1.1090529    -2.6248608
C          -0.1319367    -2.1733985    -2.3011040
H          -0.0548946    -2.5231368    -3.3264219
C           0.8476884    -2.5183553    -1.3718400
H           1.6893616    -3.1347135    -1.6801512
C           0.7825668    -2.0869900    -0.0396682
C          -0.3124288    -1.2971472     0.3084149
F          -0.4132351    -0.8413710     1.5840263
C          -1.3081987    -0.9354805    -0.5912722
H          -2.1306446    -0.3153046    -0.2501674
C           3.9447229     1.9415782    -0.7931203
H           4.1549631     2.9284441    -1.1950895
C           4.7680478     0.8581727    -1.1053649
H           5.6276456     0.9951037    -1.7568626
C           4.4928365    -0.4097340    -0.5987149
H           5.1369509    -1.2486257    -0.8578241
C           3.3905106    -0.6225630     0.2474622
C           2.5721668     0.4744758     0.5715411
H           1.7294074     0.3415645     1.2413556
C           2.8480960     1.7354813     0.0461835
H           2.1995515     2.5684440     0.3063902
27
389_C13H12FN_11-0-3-22 (45,) energy =    -657.1921546
C           1.8149406    -2.4008114     0.9650959
H           1.9026769    -3.4858924     1.0828322
H           1.5038275    -2.0100656     1.9385058
N           3.1650654    -1.9125207     0.6637933
H           3.7115695    -2.5963977     0.1540276
C          -1.3052785    -1.5149073    -1.9292718
H          -2.0894797    -1.2944672    -2.6478225
C          -0.2242689    -2.3241408    -2.2890545
H          -0.1631226    -2.7398135    -3.2905845
C           0.7748372    -2.6008256    -1.3576325
H           1.6158759    -3.2298416    -1.6418774
C           0.7306858    -2.0834760    -0.0558476
C          -0.3647860    -1.2813509     0.2606338
F          -0.4494604    -0.7487815     1.5079417
C          -1.3790920    -0.9847327    -0.6423894
H          -2.2000641    -0.3490684    -0.3271667
C           4.0394111     2.0035716    -0.6547027
H           4.2800983     3.0102529    -0.9836626
C           4.8340498     0.9214463    -1.0403299
H           5.7021554     1.0799897    -1.6754560
C           4.5222341    -0.3698220    -0.6251050
H           5.1486121    -1.2049738    -0.9345019
C           3.4065697    -0.6125108     0.1969301
C           2.6114975     0.4795561     0.5873436
H           1.7483415     0.3260862     1.2255732
C           2.9304671     1.7677725     0.1587204
H           2.2996348     2.5966479     0.4704443
27
389_C13H12FN_11-0-3-22 (60,) energy =    -657.1937136
C           1.8130042    -2.3086477     0.9043280
H           1.8856251    -3.3776642     1.1335709
H           1.5718242    -1.8083374     1.8455605
N           3.1423344    -1.8911099     0.4728774
H           3.6064282    -2.5680507    -0.1193518
C          -1.4331653    -1.6700714    -1.9185681
H          -2.2465653    -1.5089263    -2.6201834
C          -0.3676281    -2.5101400    -2.2530729
H          -0.3482959    -3.0095265    -3.2173619
C           0.6702907    -2.7096340    -1.3444098
H           1.4986168    -3.3633673    -1.6102315
C           0.6799948    -2.0835574    -0.0908963
C          -0.4029552    -1.2562838     0.2029668
F          -0.4387667    -0.6259043     1.4066715
C          -1.4542206    -1.0333995    -0.6788314
H          -2.2624762    -0.3720296    -0.3842863
C           4.2109680     2.0763038    -0.4983201
H           4.5029086     3.0940759    -0.7399458
C           4.9717214     0.9928677    -0.9460330
H           5.8653881     1.1620406    -1.5417746
C           4.5967580    -0.3108378    -0.6394810
H           5.2010260    -1.1459102    -0.9898981
C           3.4457646    -0.5691251     0.1297545
C           2.6794157     0.5226883     0.5746250
H           1.7794015     0.3627049     1.1571514
C           3.0678223     1.8255589     0.2600011
H           2.4584103     2.6536882     0.6136288
27
389_C13H12FN_11-0-3-22 (75,) energy =    -657.1940128
C           1.6254071    -1.9371066     1.0056970
H           1.6078898    -2.8976908     1.5348009
H           1.4348849    -1.1844767     1.7800582
N           2.9626751    -1.7501875     0.4917694
H           3.3922304    -2.5665524     0.0798776
C          -1.7062983    -1.9304706    -1.7851372
H          -2.5521709    -1.9352003    -2.4666198
C          -0.4086935    -1.7659956    -2.2701484
H          -0.2374746    -1.6393831    -3.3352186
C           0.6758996    -1.7600093    -1.3886528
H           1.6836436    -1.6237690    -1.7681218
C           0.4882962    -1.9156075    -0.0127753
C          -0.8245913    -2.0767991     0.4332366
F          -1.0253418    -2.2333646     1.7670905
C          -1.9224175    -2.0889018    -0.4142678
H          -2.9159697    -2.2203746     0.0019825
C           4.6640477     1.9102555    -0.7320711
H           5.1161442     2.8482526    -1.0401250
C           5.3217082     0.6966897    -0.9526549
H           6.2959348     0.6841899    -1.4351785
C           4.7457817    -0.5059113    -0.5581986
H           5.2739319    -1.4431474    -0.7243716
C           3.4847383    -0.5294328     0.0712430
C           2.8206415     0.6930159     0.2812699
H           1.8374943     0.7107196     0.7392379
C           3.4141605     1.8922180    -0.1137279
H           2.8804747     2.8233901     0.0601752
27
389_C13H12FN_11-0-3-22 (90,) energy =    -657.1945835
C           1.7037725    -1.9853222     0.8095604
H           1.7304226    -2.9583502     1.3148715
H           1.5922051    -1.2374444     1.6086039
N           2.9683611    -1.8161451     0.1131344
H           3.6425222    -2.5462912     0.2942639
C          -1.8666781    -1.8839702    -1.6571391
H          -2.7711146    -1.8612728    -2.2584584
C          -0.6114043    -1.8888533    -2.2667102
H          -0.5326037    -1.8691497    -3.3499014
C           0.5482101    -1.9175543    -1.4877978
H           1.5292190    -1.9198710    -1.9520953
C           0.4781424    -1.9387143    -0.0924065
C          -0.7944000    -1.9348217     0.4807915
F          -0.8818347    -1.9646366     1.8357068
C          -1.9644678    -1.9077944    -0.2641047
H          -2.9215518    -1.9062223     0.2473659
C           4.7643306     1.9435148    -0.5553091
H           5.2323636     2.9069021    -0.7346236
C           5.5204504     0.7682678    -0.5872381
H           6.5877311     0.8124118    -0.7895877
C           4.9237596    -0.4665399    -0.3558055
H           5.5235743    -1.3747424    -0.3801933
C           3.5445199    -0.5592153    -0.0867045
C           2.7850605     0.6239693    -0.0600245
H           1.7163870     0.5818326     0.1214394
C           3.3978449     1.8561921    -0.2912946
H           2.7905965     2.7576594    -0.2660531
27
389_C13H12FN_11-0-3-22 (105,) energy =    -657.1941308
C           1.6467074    -1.7871863     0.7404224
H           1.7111677    -2.6788799     1.3768565
H           1.5497948    -0.9411181     1.4336739
N           2.8829947    -1.6724146    -0.0206819
H           3.4983869    -2.4679204     0.0802924
C          -2.0053314    -2.1026016    -1.5825953
H          -2.9295948    -2.1834052    -2.1476648
C          -0.7818276    -1.9799882    -2.2420226
H          -0.7481148    -1.9639556    -3.3276522
C           0.4042960    -1.8770412    -1.5099697
H           1.3623643    -1.7834631    -2.0115145
C           0.3911193    -1.8927552    -0.1133556
C          -0.8512252    -2.0157974     0.5103626
F          -0.8790365    -2.0349167     1.8681832
C          -2.0458087    -2.1218310    -0.1862780
H          -2.9769912    -2.2160559     0.3629787
C           4.9882788     1.9609095    -0.4438826
H           5.5344285     2.8923170    -0.5598748
C           5.6577022     0.7351145    -0.4861057
H           6.7346445     0.7063666    -0.6322206
C           4.9617433    -0.4599130    -0.3318896
H           5.4965090    -1.4078284    -0.3572900
C           3.5679271    -0.4590927    -0.1363137
C           2.8950864     0.7756851    -0.1075241
H           1.8157551     0.8038581     0.0048505
C           3.6060769     1.9666234    -0.2544488
H           3.0649808     2.9092307    -0.2278709
27
389_C13H12FN_11-0-3-22 (120,) energy =    -657.1932710
C           1.5616266    -1.5899612     0.6579541
H           1.6722008    -2.3843572     1.4086835
H           1.4362947    -0.6669275     1.2353881
N           2.7781476    -1.4979021    -0.1386628
H           3.3210187    -2.3514613    -0.1428020
C          -2.0922216    -2.3655539    -1.5503848
H          -3.0161029    -2.5608968    -2.0873791
C          -0.9108675    -2.1087901    -2.2470848
H          -0.9096769    -2.1023969    -3.3333710
C           0.2752133    -1.8596557    -1.5512669
H           1.2016340    -1.6620956    -2.0814306
C           0.3042503    -1.8605520    -0.1546642
C          -0.8970271    -2.1195462     0.5068097
F          -0.8861612    -2.1222749     1.8650643
C          -2.0902780    -2.3726047    -0.1534231
H          -2.9880936    -2.5679088     0.4240303
C           5.2122052     1.9476505    -0.3130384
H           5.8423928     2.8303952    -0.3665231
C           5.7690256     0.6700735    -0.4075141
H           6.8424263     0.5505308    -0.5318759
C           4.9643253    -0.4631144    -0.3305784
H           5.4124751    -1.4533660    -0.3915855
C           3.5715911    -0.3462377    -0.1666136
C           3.0125780     0.9424255    -0.0894302
H           1.9369191     1.0649240    -0.0061094
C           3.8310918     2.0692511    -0.1540604
H           3.3760313     3.0545885    -0.0906248
27
389_C13H12FN_11-0-3-22 (135,) energy =    -657.1927600
C           1.4593071    -1.3720746     0.5735327
H           1.6072756    -2.0533567     1.4241611
H           1.2810189    -0.3899576     1.0221185
N           2.6618878    -1.3020819    -0.2461732
H           3.1294197    -2.1961509    -0.3329638
C          -2.1293918    -2.6220547    -1.5209796
H          -3.0361641    -2.9363518    -2.0299355
C          -1.0000498    -2.2533631    -2.2530558
H          -1.0226861    -2.2777970    -3.3388490
C           0.1643427    -1.8520216    -1.5932584
H           1.0501941    -1.5663712    -2.1518100
C           0.2242618    -1.8094801    -0.1977012
C          -0.9258292    -2.1832407     0.4993367
F          -0.8886582    -2.1441589     1.8561550
C          -2.0965463    -2.5883658    -0.1250922
H          -2.9536443    -2.8669769     0.4793989
C           5.4137972     1.9042088    -0.1939425
H           6.1254126     2.7244571    -0.1924164
C           5.8446234     0.5886194    -0.3772297
H           6.9014033     0.3750686    -0.5169983
C           4.9341855    -0.4645832    -0.3697187
H           5.2854249    -1.4867983    -0.4996453
C           3.5585439    -0.2280624    -0.1903435
C           3.1280745     1.1007117    -0.0222566
H           2.0700701     1.3228731     0.0781111
C           4.0505932     2.1457419    -0.0169684
H           3.6917937     3.1633848     0.1160167
27
389_C13H12FN_11-0-3-22 (150,) energy =    -657.1930408
C           1.2877025    -1.4253583     0.5266462
H           1.5270965    -2.1163926     1.3458813
H           0.9843627    -0.4733353     0.9822597
N           2.4688580    -1.2279189    -0.3207621
H           2.2670602    -1.3254618    -1.3078367
C          -1.9902949    -2.9878787    -1.8318398
H          -2.8127874    -3.3717104    -2.4286560
C          -1.0959633    -3.8660945    -1.2163271
H          -1.2172803    -4.9390841    -1.3315853
C          -0.0457478    -3.3617961    -0.4480782
H           0.6497784    -4.0426640     0.0363446
C           0.1364293    -1.9834732    -0.2762505
C          -0.7748107    -1.1379268    -0.9143436
F          -0.6280218     0.1995357    -0.7752150
C          -1.8335123    -1.6096230    -1.6805509
H          -2.5116632    -0.8992653    -2.1419103
C           5.3392569     1.7602090     0.4762634
H           6.0862898     2.5226498     0.6762498
C           5.1600905     1.2621730    -0.8179006
H           5.7688407     1.6392780    -1.6360494
C           4.2019983     0.2888192    -1.0784770
H           4.0706040    -0.0884999    -2.0909600
C           3.3921066    -0.2194036    -0.0436928
C           3.5796105     0.2798421     1.2581880
H           2.9856013    -0.1059068     2.0806610
C           4.5422879     1.2593789     1.5050105
H           4.6680836     1.6301659     2.5193870
27
389_C13H12FN_11-0-3-22 (165,) energy =    -657.1939890
C           1.0685879    -1.0438326     0.3228429
H           1.2515728    -1.5337719     1.2890270
H           0.7295378    -0.0222147     0.5417136
N           2.3134369    -1.0480589    -0.4491135
H           2.1464150    -1.1053558    -1.4468791
C          -2.0312283    -3.1731944    -1.8285065
H          -2.8109179    -3.7034141    -2.3678918
C          -0.8518813    -3.8295356    -1.4666101
H          -0.7078963    -4.8750761    -1.7227998
C           0.1405196    -3.1408356    -0.7705086
H           1.0598222    -3.6464217    -0.4869961
C          -0.0141222    -1.7908781    -0.4220798
C          -1.2037724    -1.1692702    -0.8051307
F          -1.3962262     0.1344470    -0.4947513
C          -2.2129586    -1.8317534    -1.4957581
H          -3.1150802    -1.2901625    -1.7607354
C           5.5231524     1.5240273     0.5005335
H           6.3575940     2.1766628     0.7396176
C           5.4002137     0.9659065    -0.7758379
H           6.1423129     1.1839572    -1.5399121
C           4.3322817     0.1316532    -1.0856965
H           4.2491052    -0.3002393    -2.0812553
C           3.3501257    -0.1693567    -0.1214243
C           3.4759176     0.3955088     1.1601136
H           2.7383121     0.1815864     1.9265713
C           4.5547982     1.2294740     1.4589887
H           4.6308637     1.6544901     2.4568616
27
389_C13H12FN_11-0-3-22 (180,) energy =    -657.1945288
C           1.0230326    -0.8048319     0.1506295
H           1.1879801    -1.1317855     1.1863745
H           0.6299683     0.2209089     0.2070617
N           2.2961126    -0.8787205    -0.5550968
H           2.1846690    -0.9011445    -1.5621650
C          -1.9577498    -3.3814724    -1.6597677
H          -2.7117628    -4.0214116    -2.1091080
C          -0.6338662    -3.8140547    -1.5559723
H          -0.3504686    -4.7962552    -1.9229278
C           0.3278972    -2.9855243    -0.9773828
H           1.3593057    -3.3156789    -0.8949910
C          -0.0038019    -1.7122922    -0.4936019
C          -1.3376975    -1.3174486    -0.6121221
F          -1.7023494    -0.0967241    -0.1505297
C          -2.3170916    -2.1210019    -1.1834592
H          -3.3347384    -1.7497774    -1.2469039
C           5.7055063     1.3018203     0.6491993
H           6.5921374     1.8504912     0.9528074
C           5.6223147     0.7337456    -0.6260803
H           6.4487378     0.8386233    -1.3246770
C           4.4889223     0.0305980    -1.0167088
H           4.4388785    -0.4151616    -2.0083397
C           3.3974129    -0.1243516    -0.1388195
C           3.4808614     0.4567194     1.1387283
H           2.6548040     0.3711886     1.8364526
C           4.6282267     1.1546731     1.5209828
H           4.6691680     1.5941941     2.5146027
