27
389_C13H12FN_3-0-11-9 (-165,) energy =    -657.1905577
C           1.1654698    -1.4832888     0.0803355
H           1.9014540    -2.3056352    -0.0107504
H           1.0305628    -1.3272138     1.1592031
N           1.6710845    -0.2598091    -0.5070398
H           1.4126123    -0.1086844    -1.4697354
C          -2.5891171    -3.1363569    -1.3862785
H          -3.5209148    -3.5688617    -1.7383823
C          -2.0347146    -3.5334008    -0.1672889
H          -2.5302903    -4.2826361     0.4428748
C          -0.8429707    -2.9620142     0.2697599
H          -0.4202213    -3.2716694     1.2230365
C          -0.1609038    -1.9823930    -0.4721102
C          -0.7405827    -1.6343473    -1.6931654
F          -0.1374321    -0.7245856    -2.5121850
C          -1.9349041    -2.1783754    -2.1549035
H          -2.3219396    -1.8445411    -3.1120564
C           5.4060991     1.3852417     0.5541034
H           6.3631535     1.8224941     0.8228275
C           4.7217520     1.8163655    -0.5875853
H           5.1471251     2.5949424    -1.2161809
C           3.4971703     1.2598305    -0.9345266
H           2.9710071     1.6075904    -1.8213732
C           2.9139392     0.2466452    -0.1447405
C           3.6091292    -0.1885544     0.9990661
H           3.1966834    -0.9696603     1.6288788
C           4.8371880     0.3833310     1.3378007
H           5.3532413     0.0307555     2.2276782
27
389_C13H12FN_3-0-11-9 (-150,) energy =    -657.1920451
C           1.2238251    -1.5780548     0.0197408
H           1.9631909    -2.3673462    -0.2192570
H           1.1734085    -1.5364960     1.1143059
N           1.6530030    -0.2823596    -0.4755045
H           1.3814100    -0.0964376    -1.4298234
C          -2.6194960    -3.0709533    -1.3735393
H          -3.5738128    -3.4602132    -1.7157923
C          -2.1464863    -3.3711476    -0.0950731
H          -2.7285627    -4.0012987     0.5707755
C          -0.9243580    -2.8546584     0.3320213
H          -0.5664025    -3.0852215     1.3326233
C          -0.1373287    -2.0265272    -0.4831570
C          -0.6365940    -1.7799583    -1.7637711
F           0.0911650    -1.0310560    -2.6419669
C          -1.8564524    -2.2663777    -2.2172097
H          -2.1789173    -2.0160096    -3.2225406
C           5.3732842     1.4163386     0.5631007
H           6.3247070     1.8682546     0.8275842
C           4.6206355     1.9149203    -0.5056892
H           4.9861013     2.7620149    -1.0810954
C           3.4028435     1.3395352    -0.8461275
H           2.8219222     1.7413045    -1.6739944
C           2.8959032     0.2388538    -0.1241271
C           3.6599827    -0.2638070     0.9451433
H           3.3098054    -1.1152495     1.5189845
C           4.8800466     0.3276479     1.2794318
H           5.4507338    -0.0791996     2.1108495
27
389_C13H12FN_3-0-11-9 (-135,) energy =    -657.1934127
C           1.2983500    -1.6756314    -0.0440366
H           2.0394761    -2.4097327    -0.4135534
H           1.3241724    -1.7375493     1.0492567
N           1.6450936    -0.3187087    -0.4424123
H           1.3486290    -0.0955240    -1.3829135
C          -2.6173414    -3.0212267    -1.3614172
H          -3.5908921    -3.3693729    -1.6938817
C          -2.2075397    -3.2160750    -0.0419584
H          -2.8601525    -3.7209372     0.6640523
C          -0.9571239    -2.7572239     0.3745465
H          -0.6449087    -2.9049942     1.4053675
C          -0.0856768    -2.0945172    -0.4997303
C          -0.5297251    -1.9405647    -1.8147720
F           0.2899762    -1.3315500    -2.7175285
C          -1.7701031    -2.3740716    -2.2611771
H          -2.0468997    -2.2079166    -3.2970940
C           5.3459470     1.4520163     0.5526644
H           6.2905662     1.9231462     0.8078875
C           4.5300592     1.9892467    -0.4486422
H           4.8388106     2.8859202    -0.9804686
C           3.3206375     1.3891305    -0.7768434
H           2.6897546     1.8208386    -1.5513754
C           2.8866969     0.2245827    -0.1104115
C           3.7145998    -0.3166128     0.8898737
H           3.4219699    -1.2179971     1.4178270
C           4.9251237     0.2996993     1.2136341
H           5.5461648    -0.1380621     1.9915250
27
389_C13H12FN_3-0-11-9 (-120,) energy =    -657.1940835
C           1.0306526    -0.4617387    -0.5349101
H           0.6749589     0.0624755     0.3706123
H           1.0953711     0.2900742    -1.3282420
N           2.3535232    -1.0446314    -0.3342114
H           2.3126755    -1.9265987     0.1613358
C          -1.9294220    -3.4276263    -1.6553321
H          -2.6751306    -4.1699154    -1.9248373
C          -1.6417044    -2.3696597    -2.5186634
H          -2.1632043    -2.2821306    -3.4671627
C          -0.6790868    -1.4221265    -2.1649285
H          -0.4543323    -0.6010107    -2.8408582
C           0.0138029    -1.5025861    -0.9515949
C          -0.3080028    -2.5750031    -0.1177644
F           0.3513536    -2.6860025     1.0674745
C          -1.2541329    -3.5374749    -0.4384900
H          -1.4489068    -4.3455939     0.2588996
C           5.6851983     1.2727233     0.8328557
H           6.5526441     1.8571525     1.1250740
C           5.6864117    -0.1194371     0.9685313
H           6.5599090    -0.6272843     1.3700776
C           4.5780072    -0.8696614     0.5949547
H           4.5930602    -1.9530490     0.6968452
C           3.4264346    -0.2467123     0.0722162
C           3.4266421     1.1538532    -0.0546805
H           2.5554021     1.6713616    -0.4419668
C           4.5492214     1.8954366     0.3192348
H           4.5246696     2.9770776     0.2105530
27
389_C13H12FN_3-0-11-9 (-105,) energy =    -657.1940640
C           1.0063906    -0.4249567    -0.5037331
H           0.7023464     0.0292544     0.4544908
H           1.0080238     0.3763565    -1.2508609
N           2.3489487    -0.9956532    -0.4273195
H           2.3502492    -1.9340443    -0.0458741
C          -1.8957553    -3.4396030    -1.6247317
H          -2.6250445    -4.1982888    -1.8938550
C          -1.4935012    -2.4843538    -2.5599642
H          -1.9081519    -2.4954385    -3.5635703
C          -0.5560864    -1.5127213    -2.2050059
H          -0.2412820    -0.7702552    -2.9338782
C          -0.0055362    -1.4681961    -0.9191782
C          -0.4293516    -2.4456472    -0.0168785
F           0.1046522    -2.4386622     1.2310939
C          -1.3589631    -3.4256706    -0.3362598
H          -1.6456963    -4.1533427     0.4158134
C           5.6840387     1.2587979     0.8446695
H           6.5517894     1.8293030     1.1623631
C           5.7215036    -0.1392770     0.8213204
H           6.6237747    -0.6655186     1.1231418
C           4.6128854    -0.8721042     0.4150195
H           4.6555775    -1.9593481     0.3930505
C           3.4251583    -0.2244447     0.0192817
C           3.3892763     1.1809693     0.0509977
H           2.4897390     1.7140367    -0.2381077
C           4.5122221     1.9053369     0.4561011
H           4.4598902     2.9913093     0.4716609
27
389_C13H12FN_3-0-11-9 (-90,) energy =    -657.1940441
C           0.9661592    -0.4352721    -0.4285688
H           0.7107249    -0.0586054     0.5741299
H           0.9011395     0.4145266    -1.1182764
N           2.3252871    -0.9705318    -0.4749925
H           2.3737604    -1.9509235    -0.2258980
C          -1.8840356    -3.4757699    -1.6054111
H          -2.5995835    -4.2412381    -1.8918749
C          -1.3394873    -2.6233572    -2.5687110
H          -1.6283480    -2.7226973    -3.6108258
C          -0.4241597    -1.6408872    -2.1902005
H           0.0019339    -0.9763660    -2.9375548
C          -0.0347454    -1.4840441    -0.8542361
C          -0.5947759    -2.3613057     0.0765331
F          -0.2287097    -2.2461649     1.3758732
C          -1.5112993    -3.3475061    -0.2672132
H          -1.9139516    -3.9919837     0.5073019
C           5.6716252     1.2344274     0.8479498
H           6.5415990     1.7946618     1.1775748
C           5.7393872    -0.1528910     0.6834523
H           6.6677098    -0.6811910     0.8865412
C           4.6279094    -0.8728723     0.2619124
H           4.6941491    -1.9512845     0.1310565
C           3.4071108    -0.2221167    -0.0081963
C           3.3410369     1.1720987     0.1649190
H           2.4159178     1.7054241    -0.0266956
C           4.4667372     1.8835319     0.5843016
H           4.3909974     2.9608891     0.7102264
27
389_C13H12FN_3-0-11-9 (-75,) energy =    -657.1941723
C           0.9621938    -0.4610794    -0.3461981
H           0.7463780    -0.1788974     0.6946132
H           0.8453319     0.4433796    -0.9560187
N           2.3290373    -0.9531110    -0.5074023
H           2.4142809    -1.9486986    -0.3423765
C          -1.8666316    -3.4598184    -1.6750697
H          -2.5776750    -4.2128885    -2.0027261
C          -1.1488392    -2.7118117    -2.6123160
H          -1.2979504    -2.8803845    -3.6747398
C          -0.2423404    -1.7443943    -2.1808592
H           0.3197504    -1.1617177    -2.9061209
C          -0.0301605    -1.4991229    -0.8172501
C          -0.7591324    -2.2728821     0.0869873
F          -0.5748209    -2.0747779     1.4137613
C          -1.6735454    -3.2418599    -0.3117060
H          -2.2128674    -3.8040681     0.4435605
C           5.6949681     1.2362805     0.7916758
H           6.5694709     1.7936569     1.1140668
C           5.7870532    -0.1303177     0.5084577
H           6.7391926    -0.6451883     0.6106451
C           4.6698463    -0.8464775     0.0955636
H           4.7549252    -1.9079625    -0.1291178
C           3.4187380    -0.2127801    -0.0453740
C           3.3284294     1.1597858     0.2477669
H           2.3797450     1.6784537     0.1589280
C           4.4600767     1.8681770     0.6561822
H           4.3653350     2.9287879     0.8761430
27
389_C13H12FN_3-0-11-9 (-60,) energy =    -657.1943639
C           0.9565878    -0.5159246    -0.2307466
H           0.7826812    -0.3371765     0.8397566
H           0.7897451     0.4396909    -0.7448936
N           2.3238007    -0.9490932    -0.5068298
H           2.4482620    -1.9498163    -0.4118940
C          -1.8785068    -3.4351358    -1.7187487
H          -2.5920857    -4.1661089    -2.0882540
C          -0.9918278    -2.8068615    -2.5977287
H          -1.0116855    -3.0465195    -3.6568282
C          -0.0824644    -1.8677052    -2.1138825
H           0.6132771    -1.3792888    -2.7908636
C          -0.0326721    -1.5339238    -0.7526788
C          -0.9304573    -2.1856695     0.0938412
F          -0.9153960    -1.8989497     1.4173815
C          -1.8510356    -3.1243934    -0.3603200
H          -2.5233013    -3.5926153     0.3511659
C           5.7026797     1.2603419     0.7257879
H           6.5797115     1.8238179     1.0301757
C           5.8160356    -0.0795033     0.3410209
H           6.7876463    -0.5673961     0.3449793
C           4.6953719    -0.8031735    -0.0489241
H           4.7968117    -1.8430707    -0.3535981
C           3.4194483    -0.2045212    -0.0644098
C           3.3084320     1.1403195     0.3315153
H           2.3407538     1.6304584     0.3431342
C           4.4432891     1.8572926     0.7153846
H           4.3317767     2.8961076     1.0164532
27
389_C13H12FN_3-0-11-9 (-45,) energy =    -657.1945098
C           0.9719538    -0.5834508    -0.1278639
H           0.8458391    -0.5163725     0.9623823
H           0.7549996     0.4154721    -0.5301887
N           2.3326284    -0.9411242    -0.5122354
H           2.4979761    -1.9404710    -0.4864083
C          -1.9061746    -3.3913474    -1.7487770
H          -2.6327612    -4.0926154    -2.1491505
C          -0.8729570    -2.9066945    -2.5544943
H          -0.7914762    -3.2278028    -3.5888489
C           0.0547891    -2.0060958    -2.0317374
H           0.8627667    -1.6282135    -2.6516975
C          -0.0219548    -1.5709733    -0.7009944
C          -1.0693942    -2.0757871     0.0713865
F          -1.1842250    -1.6782584     1.3614728
C          -2.0088072    -2.9737423    -0.4225085
H          -2.7966124    -3.3287851     0.2337875
C           5.7048804     1.3029329     0.6778672
H           6.5798580     1.8759325     0.9701267
C           5.8386851    -0.0006420     0.1892405
H           6.8243286    -0.4505076     0.0988555
C           4.7204829    -0.7359127    -0.1857729
H           4.8373871    -1.7464069    -0.5727842
C           3.4269556    -0.1863658    -0.0808358
C           3.2958765     1.1209945     0.4199134
H           2.3153393     1.5721431     0.5276976
C           4.4281273     1.8509704     0.7868774
H           4.3009395     2.8603405     1.1704811
27
389_C13H12FN_3-0-11-9 (-30,) energy =    -657.1944470
C           1.0016148    -0.6876728    -0.0545553
H           0.9192895    -0.7385491     1.0419479
H           0.7422129     0.3427382    -0.3334955
N           2.3508661    -0.9582187    -0.5288306
H           2.5615419    -1.9493683    -0.5601942
C          -1.9323705    -3.3630848    -1.7989765
H          -2.6757726    -4.0305946    -2.2252068
C          -0.7835395    -3.0323440    -2.5194690
H          -0.6272296    -3.4390592    -3.5143993
C           0.1675731    -2.1741025    -1.9648022
H           1.0592825    -1.9093254    -2.5248705
C          -0.0022641    -1.6311482    -0.6846065
C          -1.1666139    -1.9821713     0.0020865
F          -1.3692109    -1.4682771     1.2398521
C          -2.1300186    -2.8329918    -0.5234760
H          -3.0096934    -3.0659628     0.0675868
C           5.6907786     1.3474103     0.6401218
H           6.5572097     1.9365705     0.9256124
C           5.8490851     0.0883191     0.0523746
H           6.8451620    -0.3104261    -0.1231717
C           4.7416046    -0.6669871    -0.3144729
H           4.8767990    -1.6414528    -0.7800013
C           3.4351319    -0.1839825    -0.1009961
C           3.2802705     1.0775882     0.4995631
H           2.2906121     1.4763922     0.6942859
C           4.4013418     1.8295219     0.8568443
H           4.2554843     2.8027903     1.3189875
27
389_C13H12FN_3-0-11-9 (-15,) energy =    -657.1939388
C           1.0405456    -0.8029941     0.0285159
H           1.0145627    -0.9749195     1.1170391
H           0.7388928     0.2426028    -0.1169686
N           2.3690987    -0.9741210    -0.5345344
H           2.6257778    -1.9502884    -0.6320703
C          -1.9697714    -3.3356858    -1.7975905
H          -2.7356855    -3.9677546    -2.2377140
C          -0.7452170    -3.1563003    -2.4407952
H          -0.5512960    -3.6458618    -3.3907421
C           0.2358582    -2.3417544    -1.8693058
H           1.1795527    -2.1869113    -2.3826146
C           0.0178391    -1.6926630    -0.6489722
C          -1.2217126    -1.8961883    -0.0376951
F          -1.4599196    -1.2752535     1.1439068
C          -2.2154828    -2.6977640    -0.5799831
H          -3.1549300    -2.8108209    -0.0488903
C           5.6706433     1.3924797     0.6283044
H           6.5264482     1.9982296     0.9111127
C           5.8482521     0.1815982    -0.0481822
H           6.8490626    -0.1627803    -0.2966187
C           4.7537627    -0.5942090    -0.4114540
H           4.9038303    -1.5299553    -0.9467046
C           3.4417066    -0.1817598    -0.1053584
C           3.2683391     1.0308383     0.5838349
H           2.2751939     1.3749086     0.8512568
C           4.3757547     1.8048699     0.9367259
H           4.2151606     2.7394755     1.4684853
27
389_C13H12FN_3-0-11-9 (0,) energy =    -657.1928850
C           1.0860499    -0.9056243     0.0775121
H           1.1087659    -1.1896325     1.1441039
H           0.7564586     0.1400619     0.0577498
N           2.3915767    -0.9809530    -0.5517820
H           2.6890332    -1.9362349    -0.7154747
C          -1.9997365    -3.2997560    -1.8086481
H          -2.7867450    -3.8985313    -2.2578899
C          -0.7228152    -3.2762917    -2.3680126
H          -0.5077926    -3.8556084    -3.2612144
C           0.2864997    -2.5036626    -1.7858946
H           1.2671888    -2.4676859    -2.2491166
C           0.0430732    -1.7384250    -0.6411183
C          -1.2482111    -1.7917316    -0.1103465
F          -1.5035879    -1.0619553     1.0040638
C          -2.2710100    -2.5461295    -0.6642658
H          -3.2511707    -2.5356609    -0.1989127
C           5.6516268     1.4365013     0.6277304
H           6.4966600     2.0558599     0.9134136
C           5.8421246     0.2828797    -0.1392559
H           6.8420297    -0.0028655    -0.4562006
C           4.7612303    -0.5098453    -0.5064772
H           4.9202190    -1.3996259    -1.1129007
C           3.4506602    -0.1733018    -0.1136166
C           3.2650519     0.9812536     0.6659264
H           2.2743331     1.2664934     1.0022926
C           4.3583761     1.7736971     1.0221101
H           4.1882047     2.6624240     1.6248005
27
389_C13H12FN_3-0-11-9 (15,) energy =    -657.1939403
C           0.9674689    -0.6987102    -0.0799054
H           1.0119838    -0.8388736     1.0080908
H           0.5924148     0.3262577    -0.2355935
N           2.3029220    -0.8954456    -0.6168532
H           2.3045789    -0.9944874    -1.6259971
C          -1.9782647    -3.4508139    -1.6799968
H          -2.7311929    -4.1263249    -2.0757287
C          -0.6215571    -3.7271417    -1.8485977
H          -0.3087597    -4.6241040    -2.3752106
C           0.3420326    -2.8539109    -1.3371957
H           1.3969826    -3.0827552    -1.4501671
C          -0.0253489    -1.6915446    -0.6500576
C          -1.3934364    -1.4517757    -0.5004117
F          -1.7769775    -0.3341352     0.1647450
C          -2.3733294    -2.2993118    -0.9960365
H          -3.4180344    -2.0490735    -0.8431297
C           5.6640918     1.2765946     0.7368919
H           6.5389829     1.8208956     1.0798462
C           5.6905351     0.5781814    -0.4743649
H           6.5912256     0.5756194    -1.0832037
C           4.5721840    -0.1200005    -0.9141320
H           4.6073666    -0.6688229    -1.8533899
C           3.3864157    -0.1382765    -0.1532561
C           3.3605141     0.5737463     1.0582809
H           2.4616328     0.5976556     1.6646231
C           4.4935035     1.2648531     1.4928409
H           4.4488379     1.8071008     2.4341294
27
389_C13H12FN_3-0-11-9 (30,) energy =    -657.1944470
C           0.9745213    -0.7605638     0.0456977
H           1.0900219    -1.0178037     1.1074037
H           0.5846608     0.2685802     0.0201693
N           2.2765674    -0.8831451    -0.5931843
H           2.2118113    -0.9314440    -1.6037440
C          -1.9793516    -3.4132715    -1.6997426
H          -2.7291933    -4.0694872    -2.1321864
C          -0.6323850    -3.7793792    -1.7045844
H          -0.3257863    -4.7263623    -2.1392727
C           0.3256761    -2.9305909    -1.1473573
H           1.3736500    -3.2146095    -1.1432634
C          -0.0348262    -1.7023736    -0.5780948
C          -1.3923189    -1.3744435    -0.5882687
F          -1.7792033    -0.1978136    -0.0377106
C          -2.3676788    -2.1978617    -1.1350274
H          -3.4043170    -1.8780103    -1.1118703
C           5.6658883     1.2878743     0.6865885
H           6.5474679     1.8332936     1.0101036
C           5.6324573     0.6685751    -0.5668783
H           6.4929939     0.7296301    -1.2284870
C           4.5054484    -0.0306254    -0.9822578
H           4.4943141    -0.5169520    -1.9558802
C           3.3705704    -0.1298094    -0.1528136
C           3.4042576     0.5029799     1.1020220
H           2.5444973     0.4625303     1.7619959
C           4.5456066     1.1961549     1.5103346
H           4.5475247     1.6763096     2.4858025
27
389_C13H12FN_3-0-11-9 (45,) energy =    -657.1945098
C           0.9892353    -0.8301074     0.1438237
H           1.1663614    -1.1983926     1.1634966
H           0.5934117     0.1908709     0.2436879
N           2.2552025    -0.8702560    -0.5792103
H           2.1326611    -0.8747217    -1.5850456
C          -1.9824417    -3.3564662    -1.7490210
H          -2.7330945    -3.9851767    -2.2193899
C          -0.6779158    -3.8242699    -1.5731039
H          -0.4069007    -4.8224021    -1.9046633
C           0.2788395    -3.0100569    -0.9674843
H           1.2959272    -3.3662716    -0.8311283
C          -0.0376978    -1.7168700    -0.5275206
C          -1.3517146    -1.2864941    -0.7189813
F          -1.7021921    -0.0451723    -0.3044497
C          -2.3265091    -2.0756909    -1.3187085
H          -3.3287323    -1.6775451    -1.4389019
C           5.6504055     1.3222921     0.6422602
H           6.5331950     1.8745670     0.9504928
C           5.5577103     0.7912914    -0.6482367
H           6.3728973     0.9291107    -1.3542960
C           4.4290587     0.0838234    -1.0448218
H           4.3718891    -0.3322887    -2.0488700
C           3.3519220    -0.1133260    -0.1575776
C           3.4449217     0.4304328     1.1357573
H           2.6299443     0.3108207     1.8415293
C           4.5873249     1.1334081     1.5234327
H           4.6357733     1.5434750     2.5292401
27
389_C13H12FN_3-0-11-9 (60,) energy =    -657.1943641
C           1.0166076    -0.9219315     0.2163159
H           1.2612082    -1.3875011     1.1799585
H           0.6090169     0.0746685     0.4375574
N           2.2379997    -0.8581915    -0.5815581
H           2.0582658    -0.8028896    -1.5768254
C          -1.9755518    -3.3254057    -1.7948821
H          -2.7290279    -3.9252335    -2.2973897
C          -0.7459933    -3.8878106    -1.4408017
H          -0.5370477    -4.9294163    -1.6664352
C           0.2127851    -3.1103438    -0.7932452
H           1.1729047    -3.5398064    -0.5201078
C          -0.0262797    -1.7632116    -0.4853109
C          -1.2636453    -1.2368690    -0.8585322
F          -1.5374570     0.0611721    -0.5857678
C          -2.2407725    -1.9886335    -1.5027383
H          -3.1832625    -1.5183608    -1.7633689
C           5.6277510     1.3564792     0.6110152
H           6.5091696     1.9155859     0.9107201
C           5.4749875     0.9232650    -0.7099779
H           6.2413840     1.1452973    -1.4484935
C           4.3479403     0.2076469    -1.0963681
H           4.2436859    -0.1309493    -2.1254351
C           3.3329388    -0.0969301    -0.1670251
C           3.4859780     0.3483679     1.1581581
H           2.7193935     0.1435064     1.8978390
C           4.6260264     1.0612786     1.5340429
H           4.7216689     1.3939894     2.5647457
27
389_C13H12FN_3-0-11-9 (75,) energy =    -657.1941724
C           1.0735976    -1.0350119     0.2664734
H           1.3744283    -1.5852903     1.1665901
H           0.6662240    -0.0692441     0.5994404
N           2.2487297    -0.8687057    -0.5866081
H           2.0156497    -0.7618569    -1.5663703
C          -1.9819297    -3.2788135    -1.8285525
H          -2.7515009    -3.8366622    -2.3544995
C          -0.8627139    -3.9365259    -1.3109690
H          -0.7559461    -5.0103902    -1.4326761
C           0.1165467    -3.2114064    -0.6334528
H           0.9898037    -3.7183618    -0.2311073
C           0.0065689    -1.8254893    -0.4552040
C          -1.1209154    -1.2042275    -0.9943380
F          -1.2600178     0.1353897    -0.8541374
C          -2.1166832    -1.9001809    -1.6711591
H          -2.9716293    -1.3569829    -2.0602209
C           5.5932577     1.4253100     0.5791178
H           6.4634768     2.0059546     0.8705425
C           5.3881111     1.0745759    -0.7592507
H           6.1016600     1.3833143    -1.5192693
C           4.2756610     0.3314736    -1.1357467
H           4.1298149     0.0578808    -2.1789946
C           3.3284911    -0.0837280    -0.1781083
C           3.5340389     0.2773617     1.1655708
H           2.8212918    -0.0172333     1.9285327
C           4.6590018     1.0193397     1.5304442
H           4.7967966     1.2856487     2.5755996
27
389_C13H12FN_3-0-11-9 (90,) energy =    -657.1940438
C           1.1091316    -1.1113337     0.2899979
H           1.4649333    -1.7270142     1.1245194
H           0.7008307    -0.1846575     0.7225417
N           2.2337814    -0.8408917    -0.6032281
H           1.9476884    -0.6627144    -1.5581968
C          -2.0184912    -3.2214466    -1.8358274
H          -2.8066529    -3.7425826    -2.3717552
C          -1.0244638    -3.9409500    -1.1685711
H          -1.0337608    -5.0267797    -1.1832378
C          -0.0186786    -3.2623445    -0.4799294
H           0.7566857    -3.8194812     0.0397500
C           0.0191664    -1.8630755    -0.4378875
C          -0.9870356    -1.1808457    -1.1246561
F          -0.9725721     0.1738894    -1.1163781
C          -2.0043865    -1.8266137    -1.8165541
H          -2.7602030    -1.2358426    -2.3235900
C           5.5581402     1.4726948     0.5839644
H           6.4226075     2.0592623     0.8806224
C           5.2924728     1.2302085    -0.7676374
H           5.9527915     1.6304908    -1.5330681
C           4.1868589     0.4801472    -1.1504720
H           3.9938920     0.2926254    -2.2050227
C           3.3074853    -0.0525172    -0.1861892
C           3.5743489     0.1994215     1.1715420
H           2.9148590    -0.1886851     1.9406102
C           4.6912358     0.9506085     1.5423434
H           4.8764559     1.1310876     2.5984745
27
389_C13H12FN_3-0-11-9 (105,) energy =    -657.1940637
C           1.1678855    -1.1728886     0.2880147
H           1.5882629    -1.8313972     1.0560894
H           0.7480028    -0.2966104     0.8103642
N           2.2342492    -0.7905267    -0.6342616
H           1.8796421    -0.4937902    -1.5355052
C          -2.0184094    -3.2360063    -1.8002010
H          -2.8228498    -3.7420539    -2.3262047
C          -1.1360948    -3.9597079    -0.9960461
H          -1.2492661    -5.0347654    -0.8924036
C          -0.1055760    -3.3005393    -0.3234544
H           0.5827261    -3.8644664     0.3008891
C           0.0658137    -1.9158108    -0.4320813
C          -0.8334947    -1.2311954    -1.2516246
F          -0.6777153     0.1099598    -1.3921770
C          -1.8687082    -1.8547065    -1.9343812
H          -2.5333953    -1.2600617    -2.5523721
C           5.5739374     1.4761653     0.6042501
H           6.4420676     2.0518659     0.9113624
C           5.2403985     1.3589468    -0.7490989
H           5.8509774     1.8464260    -1.5051955
C           4.1303310     0.6226756    -1.1450674
H           3.8848132     0.5315948    -2.2013933
C           3.3139165    -0.0209875    -0.1932085
C           3.6486924     0.1053520     1.1667083
H           3.0388204    -0.3687738     1.9284149
C           4.7700572     0.8435672     1.5506757
H           5.0082964     0.9260206     2.6083883
27
389_C13H12FN_3-0-11-9 (120,) energy =    -657.1940832
C           1.1884417    -1.1987879     0.2454019
H           1.6658394    -1.8888287     0.9487577
H           0.7537972    -0.3812110     0.8486809
N           2.1998804    -0.7030540    -0.6826714
H           1.7905597    -0.3028766    -1.5177803
C          -2.0378009    -3.2738071    -1.7788663
H          -2.8528136    -3.7840222    -2.2839865
C          -1.2525218    -3.9498866    -0.8441162
H          -1.4526496    -4.9925178    -0.6157950
C          -0.2049086    -3.2865696    -0.2021835
H           0.4076388    -3.8162412     0.5229953
C           0.0830305    -1.9437438    -0.4715408
C          -0.7295004    -1.3059353    -1.4106439
F          -0.4728232    -0.0012044    -1.6998543
C          -1.7748945    -1.9343707    -2.0714093
H          -2.3619285    -1.3749012    -2.7923348
C           5.5823341     1.4653914     0.6176139
H           6.4610183     2.0172282     0.9382456
C           5.1733154     1.4926306    -0.7197181
H           5.7351277     2.0700630    -1.4498435
C           4.0496508     0.7869963    -1.1325604
H           3.7455087     0.8084306    -2.1772461
C           3.2946882     0.0286556    -0.2147165
C           3.7049238     0.0109266     1.1302868
H           3.1438051    -0.5514963     1.8690003
C           4.8392670     0.7199456     1.5309326
H           5.1360487     0.6894048     2.5765649
27
389_C13H12FN_3-0-11-9 (135,) energy =    -657.1934127
C           1.2163528    -1.2584251     0.1816042
H           1.7470519    -1.9926627     0.7973024
H           0.7860230    -0.5188100     0.8833667
N           2.1681727    -0.6395392    -0.7301146
H           1.7242322    -0.1949883    -1.5222814
C          -2.1038496    -3.2912341    -1.7481383
H          -2.9419289    -3.7943273    -2.2214803
C          -1.3953123    -3.9107862    -0.7180946
H          -1.6787988    -4.9028355    -0.3793841
C          -0.3155796    -3.2566189    -0.1233145
H           0.2377854    -3.7463671     0.6740634
C           0.0900945    -1.9796029    -0.5327829
C          -0.6610962    -1.3907581    -1.5521911
F          -0.3321528    -0.1354483    -1.9690775
C          -1.7332238    -2.0153867    -2.1736119
H          -2.2610101    -1.4954354    -2.9663556
C           5.5498123     1.4875622     0.6339044
H           6.4279656     2.0310594     0.9698621
C           5.0916647     1.6182952    -0.6813653
H           5.6144233     2.2687231    -1.3783962
C           3.9689009     0.9236630    -1.1143133
H           3.6264937     1.0259479    -2.1422206
C           3.2637727     0.0716926    -0.2393967
C           3.7233470    -0.0499911     1.0845819
H           3.2020049    -0.6863177     1.7917924
C           4.8563631     0.6496514     1.5050316
H           5.1917441     0.5374096     2.5333121
27
389_C13H12FN_3-0-11-9 (150,) energy =    -657.1920451
C           1.2914841    -1.3496598     0.1084984
H           1.8684499    -2.1328303     0.6145627
H           0.8867191    -0.7046399     0.9127866
N           2.1815760    -0.6088798    -0.7674225
H           1.7129963    -0.1400107    -1.5287554
C          -2.1484266    -3.2877872    -1.7222807
H          -3.0145222    -3.7728620    -2.1626915
C          -1.5130141    -3.8409869    -0.6093754
H          -1.8815045    -4.7631078    -0.1698702
C          -0.3962335    -3.2108583    -0.0630183
H           0.0992545    -3.6523549     0.7984154
C           0.1282449    -2.0239976    -0.5978322
C          -0.5592517    -1.4921317    -1.6907631
F          -0.1512498    -0.3107050    -2.2380065
C          -1.6662787    -2.1004856    -2.2692659
H          -2.1345765    -1.6285865    -3.1268010
C           5.5397098     1.4977618     0.6781221
H           6.4109885     2.0385076     1.0356857
C           5.0446399     1.7180060    -0.6117519
H           5.5317026     2.4360577    -1.2670375
C           3.9307220     1.0273876    -1.0724211
H           3.5597431     1.2005828    -2.0807015
C           3.2711908     0.0886740    -0.2516778
C           3.7682411    -0.1238970     1.0473964
H           3.2835054    -0.8301154     1.7130984
C           4.8919198     0.5737044     1.4955248
H           5.2566780     0.3902991     2.5033833
27
389_C13H12FN_3-0-11-9 (165,) energy =    -657.1905577
C           1.3693356    -1.4269027     0.0448782
H           1.9884449    -2.2527467     0.4206779
H           1.0153751    -0.8879470     0.9451224
N           2.1895810    -0.5726049    -0.7887645
H           1.6960793    -0.0908182    -1.5241222
C          -2.1911677    -3.2617136    -1.6687602
H          -3.0852068    -3.7269053    -2.0732001
C          -1.6249959    -3.7217970    -0.4776654
H          -2.0750270    -4.5513360     0.0595425
C          -0.4747901    -3.1165545     0.0207636
H          -0.0360226    -3.4842388     0.9457622
C           0.1569524    -2.0454693    -0.6341626
C          -0.4575009    -1.6056915    -1.8076973
F           0.0490694    -0.5438033    -2.4990893
C          -1.6011201    -2.1940036    -2.3383638
H          -2.0091375    -1.7961944    -3.2617572
C           5.5254592     1.5255492     0.7121712
H           6.3903098     2.0663834     1.0848510
C           4.9708455     1.8405940    -0.5331405
H           5.4042998     2.6337720    -1.1374933
C           3.8648361     1.1508565    -1.0134685
H           3.4459506     1.4004712    -1.9863542
C           3.2737995     0.1164685    -0.2576901
C           3.8310235    -0.1924532     0.9973169
H           3.4016939    -0.9773206     1.6109657
C           4.9457003     0.5064889     1.4651988
H           5.3583803     0.2471389     2.4372765
27
389_C13H12FN_3-0-11-9 (180,) energy =    -657.1896534
C           1.4174107    -1.5265200    -0.0096072
H           2.0710330    -2.3854030     0.2070177
H           1.1414351    -1.1111196     0.9774958
N           2.1568046    -0.5590126    -0.7895869
H           1.6386593    -0.0753442    -1.5051715
C          -2.2595632    -3.2221035    -1.6201371
H          -3.1778740    -3.6601724    -1.9996812
C          -1.7613490    -3.5856639    -0.3663665
H          -2.2891527    -4.3118860     0.2446066
C          -0.5826884    -3.0133831     0.1015032
H          -0.2001106    -3.3015189     1.0784030
C           0.1469030    -2.0716126    -0.6453061
C          -0.3942423    -1.7308296    -1.8855280
F           0.2157016    -0.8055016    -2.6801406
C          -1.5702761    -2.2853521    -2.3830811
H          -1.9206718    -1.9664256    -3.3592656
C           5.4772253     1.5400563     0.7364985
H           6.3370616     2.0831191     1.1173947
C           4.8588380     1.9313777    -0.4561329
H           5.2374699     2.7865481    -1.0107496
C           3.7585655     1.2399484    -0.9468172
H           3.2889408     1.5511353    -1.8779033
C           3.2378577     0.1260434    -0.2544800
C           3.8609244    -0.2621605     0.9468709
H           3.4901116    -1.1139618     1.5071846
C           4.9678155     0.4413614     1.4258719
H           5.4318311     0.1206140     2.3555660
