19
259_C7H9NOS_18-0-1-14 (-165,) energy =    -800.3210908
C           0.9060207    -1.9147744    -0.3380695
N           1.9256652    -1.1865861    -0.9540777
C           2.1258479    -1.3735169    -2.3964448
H           1.1691138    -1.6471680    -2.8405090
H           2.8503254    -2.1716408    -2.6031936
H           2.4931861    -0.4393198    -2.8283139
C           0.7440671    -1.7272033     1.1605640
H           0.6915029    -0.6699584     1.4361511
H           1.5893822    -2.1635588     1.7038866
H          -0.1730088    -2.2358622     1.4605428
C           4.2791888     1.0376938     0.8390526
H           4.5324228     2.0228605     1.2150565
C           3.0683100     0.7414567     0.1442434
H           2.2946711     1.4689548    -0.0766525
C           2.9638947    -0.5721236    -0.2296638
S           4.4000368    -1.4740247     0.2700269
C           5.0924776    -0.0524079     0.9806409
H           6.0606129    -0.1046109     1.4610013
O           0.1813695    -2.6554854    -0.9847791
19
259_C7H9NOS_18-0-1-14 (-150,) energy =    -800.3193621
C           0.8850643    -1.8638991    -0.0969356
N           2.2716433    -1.8957618    -0.2711397
C           2.9542733    -3.1409525     0.1098124
H           2.3423124    -3.9869686    -0.2037039
H           3.1059851    -3.2030638     1.1945976
H           3.9248358    -3.1745431    -0.3903273
C           0.1639857    -0.6066804    -0.5537286
H           0.0834962     0.1061723     0.2742220
H          -0.8474987    -0.8960004    -0.8468134
H           0.6674479    -0.1043880    -1.3832611
C           4.0500251     1.2670047     0.4823660
H           4.2848665     2.0707648     1.1715823
C           3.1739343     0.1850090     0.7961737
H           2.6701470     0.0638974     1.7494658
C           3.0355438    -0.7125684    -0.2307139
S           4.0007878    -0.2223629    -1.6206339
C           4.5772556     1.1780568    -0.7764500
H           5.2742129     1.8518105    -1.2569089
O           0.2924655    -2.8089960     0.3993889
19
259_C7H9NOS_18-0-1-14 (-135,) energy =    -800.3161708
C           0.9178990    -1.8640591     0.0809142
N           2.2793914    -1.9423156    -0.2576210
C           2.9582609    -3.1874613     0.1428270
H           2.3324702    -4.0366439    -0.1348068
H           3.1361825    -3.2241768     1.2243969
H           3.9138355    -3.2442848    -0.3830645
C           0.1490230    -0.6769758    -0.4738958
H          -0.0882926     0.0236906     0.3334830
H          -0.8000873    -1.0531187    -0.8666688
H           0.6879536    -0.1420663    -1.2581613
C           4.0759192     1.1886167     0.5902474
H           4.2944955     1.9848455     1.2934398
C           3.1713278     0.1185556     0.8620059
H           2.6272564    -0.0000343     1.7932572
C           3.0662342    -0.7734750    -0.1740267
S           4.0914196    -0.2902236    -1.5209213
C           4.6552820     1.0966427    -0.6450335
H           5.3857840     1.7585252    -1.0908172
O           0.3906919    -2.7073769     0.7865890
19
259_C7H9NOS_18-0-1-14 (-120,) energy =    -800.3116722
C           0.9928948    -1.7609604     0.2109641
N           2.3034075    -1.9091231    -0.3095606
C           2.9737922    -3.1634678     0.0891583
H           2.3083619    -4.0034997    -0.1188361
H           3.2270929    -3.1723754     1.1558273
H           3.8863969    -3.2671139    -0.5019375
C           0.1392605    -0.7032315    -0.4618875
H          -0.4653099    -0.1862646     0.2873292
H          -0.5482171    -1.2143502    -1.1471783
H           0.7244357     0.0162243    -1.0373133
C           4.2179549     1.1573655     0.5261836
H           4.4753388     1.9412681     1.2301326
C           3.2850378     0.1144112     0.8092242
H           2.7544393     0.0057136     1.7493645
C           3.1343916    -0.7676874    -0.2300607
S           4.1444223    -0.3062778    -1.5948512
C           4.7713222     1.0549588    -0.7199404
H           5.5169943     1.6937570    -1.1741658
O           0.5854636    -2.4519962     1.1262256
19
259_C7H9NOS_18-0-1-14 (-105,) energy =    -800.3064425
C           1.0225662    -1.6676524     0.2483883
N           2.2974098    -1.8648072    -0.3770978
C           2.9555554    -3.1271221     0.0277595
H           2.2716352    -3.9592297    -0.1565222
H           3.2361638    -3.1274043     1.0873822
H           3.8498206    -3.2574242    -0.5858739
C           0.0871859    -0.7574290    -0.5174886
H          -0.6606185    -0.3378540     0.1583133
H          -0.4274084    -1.3532135    -1.2820486
H           0.6281795     0.0399394    -1.0332327
C           4.2735223     1.1458842     0.5317882
H           4.5481462     1.9076890     1.2533382
C           3.3220556     0.1140800     0.7942809
H           2.7921177    -0.0074998     1.7329251
C           3.1528415    -0.7410070    -0.2649923
S           4.1642452    -0.2645092    -1.6235119
C           4.8209465     1.0629953    -0.7183416
H           5.5782172     1.6974049    -1.1593480
O           0.7368739    -2.1848235     1.3094579
19
259_C7H9NOS_18-0-1-14 (-90,) energy =    -800.3010239
C           1.0428037    -1.5672974     0.2746861
N           2.2899302    -1.8077884    -0.4241304
C           2.9149746    -3.0926773    -0.0298891
H           2.2120299    -3.9062223    -0.2315695
H           3.1929103    -3.1139818     1.0303870
H           3.8069651    -3.2400193    -0.6430296
C           0.0136614    -0.8453609    -0.5614471
H          -0.8009031    -0.4834513     0.0686624
H          -0.3862234    -1.5367437    -1.3133498
H           0.4759290    -0.0155127    -1.1053170
C           4.3600047     1.1306203     0.5326278
H           4.6624671     1.8721942     1.2641814
C           3.3807559     0.1229669     0.7881773
H           2.8546626     0.0038243     1.7285352
C           3.1782035    -0.7105772    -0.2827997
S           4.1895849    -0.2386265    -1.6438816
C           4.8948009     1.0530191    -0.7230941
H           5.6672164     1.6717938    -1.1600398
O           0.8760817    -1.8853881     1.4324477
19
259_C7H9NOS_18-0-1-14 (-75,) energy =    -800.2984981
C           1.0322411    -1.2065673     0.4441471
N           2.3962348    -1.6637170     0.3138219
C           2.6221233    -2.8471566    -0.5177384
H           1.9214986    -3.6339831    -0.2276815
H           3.6349983    -3.2104637    -0.3266551
H           2.5175165    -2.6619194    -1.5985943
C           0.1096921    -1.4311281    -0.7403679
H          -0.8333888    -0.9178990    -0.5472327
H          -0.0958048    -2.4975435    -0.8861356
H           0.5597073    -1.0537685    -1.6658090
C           4.5312542     1.3417594     0.5869365
H           4.8535266     2.2056672     1.1584967
C           3.5682182     0.4016050     1.0625271
H           3.0558700     0.4646466     2.0142701
C           3.3397237    -0.6227419     0.1804570
S           4.3251318    -0.4259977    -1.2769017
C           5.0404407     1.0268374    -0.6398614
H           5.8216613     1.5257321    -1.1969611
O           0.6456470    -0.7250490     1.4843378
19
259_C7H9NOS_18-0-1-14 (-60,) energy =    -800.3037835
C           1.0171083    -1.1343422     0.3681915
N           2.3629682    -1.5792882     0.1970482
C           2.6059586    -2.7559324    -0.6395567
H           1.8921429    -3.5417964    -0.3854739
H           3.6091596    -3.1299111    -0.4212847
H           2.5376519    -2.5525498    -1.7192880
C          -0.0051766    -1.5950325    -0.6577416
H          -0.9211414    -1.0251966    -0.4951037
H          -0.2374113    -2.6591662    -0.5333508
H           0.3481222    -1.4500147    -1.6842520
C           4.5916066     1.3394012     0.6484414
H           4.9025807     2.1934160     1.2408050
C           3.5524460     0.4453015     1.0480494
H           2.9680924     0.5376152     1.9535704
C           3.3512042    -0.5709171     0.1503725
S           4.4586876    -0.4294771    -1.2197882
C           5.1823139     0.9965889    -0.5328766
H           6.0213229     1.4615168    -1.0321425
O           0.6942495    -0.4994118     1.3509229
19
259_C7H9NOS_18-0-1-14 (-45,) energy =    -800.3092682
C           1.0313800    -1.0752959     0.3158080
N           2.3613653    -1.4932515     0.0828529
C           2.6158956    -2.6728152    -0.7462549
H           1.8852080    -3.4500739    -0.5201720
H           3.6068401    -3.0614848    -0.4995929
H           2.5831193    -2.4597535    -1.8250107
C          -0.0584599    -1.7236371    -0.5248862
H          -0.9699905    -1.1426659    -0.3777060
H          -0.2537613    -2.7502324    -0.1923718
H           0.1918274    -1.7579672    -1.5901471
C           4.6589508     1.3488017     0.6788839
H           4.9601470     2.1977867     1.2834359
C           3.5567318     0.5037281     1.0115253
H           2.9144746     0.6336029     1.8705949
C           3.3784470    -0.5136717     0.1094673
S           4.5866124    -0.4349236    -1.1764400
C           5.3167701     0.9699271    -0.4545914
H           6.2026183     1.3991179    -0.9021539
O           0.7581246    -0.3086831     1.2208822
19
259_C7H9NOS_18-0-1-14 (-30,) energy =    -800.3134863
C           1.0095587    -1.0359483     0.2524207
N           2.3275580    -1.4159416    -0.0441787
C           2.5995099    -2.6046143    -0.8543622
H           1.8617125    -3.3781165    -0.6438354
H           3.5826186    -2.9967431    -0.5827363
H           2.5932257    -2.3934371    -1.9332531
C          -0.1065707    -1.8269569    -0.4161332
H          -1.0346228    -1.2833637    -0.2347122
H          -0.2054795    -2.8256819     0.0261146
H           0.0428073    -1.9491804    -1.4938039
C           4.6767525     1.3493491     0.7104994
H           4.9642729     2.1939221     1.3277723
C           3.5151785     0.5581210     0.9642493
H           2.8154552     0.7309226     1.7677147
C           3.3644147    -0.4643541     0.0614098
S           4.6716544    -0.4521066    -1.1260568
C           5.4031074     0.9304034    -0.3653349
H           6.3345398     1.3207086    -0.7516725
O           0.7586943    -0.1641718     1.0674032
19
259_C7H9NOS_18-0-1-14 (-15,) energy =    -800.3157632
C           1.0071631    -1.0074893     0.1957865
N           2.3135000    -1.3358854    -0.1748084
C           2.6101178    -2.5319550    -0.9652277
H           1.8393197    -3.2849655    -0.8151379
H           3.5618388    -2.9549781    -0.6325903
H           2.6825371    -2.3094348    -2.0386213
C          -0.1091170    -1.9134830    -0.3093731
H          -1.0494590    -1.4269861    -0.0480689
H          -0.0840321    -2.8956261     0.1778410
H          -0.0719681    -2.0722766    -1.3921452
C           4.6944139     1.3589077     0.7391662
H           4.9597759     2.2093975     1.3582995
C           3.4751650     0.6328243     0.8971979
H           2.7112329     0.8675019     1.6213196
C           3.3630614    -0.4115076     0.0116888
S           4.7792337    -0.4940902    -1.0404612
C           5.4996938     0.8763940    -0.2501711
H           6.4781969     1.2166608    -0.5596238
O           0.7563499    -0.0577330     0.9212385
19
259_C7H9NOS_18-0-1-14 (0,) energy =    -800.3162484
C           1.0219837    -1.0017041     0.2339543
N           2.2907167    -1.2338499    -0.2954334
C           2.5875670    -2.3946739    -1.1359405
H           1.6993887    -3.0043288    -1.2713386
H           3.3646621    -3.0149988    -0.6740387
H           2.9391643    -2.0737939    -2.1235221
C          -0.0783813    -2.0063869    -0.0916090
H          -0.9790248    -1.6481535     0.4077323
H           0.1513205    -3.0121829     0.2775404
H          -0.2770584    -2.0752182    -1.1669948
C           4.7078407     1.4066483     0.7011296
H           4.9334119     2.3257089     1.2318396
C           3.4105175     0.8112272     0.7009162
H           2.5533674     1.2112465     1.2168563
C           3.3603189    -0.3482511    -0.0383144
S           4.9410612    -0.7050273    -0.7416172
C           5.6344103     0.7171423    -0.0236512
H           6.6788622     0.9422561    -0.1890072
O           0.7774702    -0.0324527     0.9373970
19
259_C7H9NOS_18-0-1-14 (15,) energy =    -800.3157631
C           1.0244299    -1.0456538     0.2567660
N           2.2365196    -1.1712540    -0.4264529
C           2.5025693    -2.3025347    -1.3168246
H           1.5695850    -2.7050116    -1.7057446
H           3.0501421    -3.1077859    -0.8082444
H           3.0992314    -1.9583222    -2.1658644
C           0.0087848    -2.1687682     0.0860256
H          -0.7969692    -1.9724343     0.7941287
H           0.4316209    -3.1592786     0.2837788
H          -0.4172079    -2.1782009    -0.9244427
C           4.6655613     1.4206459     0.6447787
H           4.8727523     2.3969246     1.0702542
C           3.3416944     0.9199835     0.4565479
H           2.4418506     1.4479228     0.7296276
C           3.3252465    -0.3310422    -0.1109223
S           4.9690085    -0.9047721    -0.4080019
C           5.6431774     0.5660527     0.2276164
H           6.7155698     0.7038128     0.2293391
O           0.7606908    -0.0676308     0.9387699
19
259_C7H9NOS_18-0-1-14 (30,) energy =    -800.3134863
C           0.9963002    -1.0091354     0.2130118
N           2.1757766    -1.0909729    -0.5430638
C           2.4298738    -2.2417461    -1.4116650
H           1.4965198    -2.5932038    -1.8502166
H           2.9082320    -3.0770315    -0.8805194
H           3.0856660    -1.9274279    -2.2272531
C           0.0757156    -2.2217940     0.1938176
H          -0.6722346    -2.0659142     0.9722512
H           0.6049581    -3.1627015     0.3760802
H          -0.4463363    -2.3090390    -0.7667421
C           4.6587105     1.3872876     0.6523333
H           4.8850064     2.3653373     1.0636955
C           3.3306659     0.9553099     0.3534909
H           2.4399079     1.5413758     0.5211631
C           3.2925105    -0.3114722    -0.1729939
S           4.9186564    -0.9887633    -0.2995642
C           5.6174542     0.4651744     0.3506607
H           6.6920000     0.5464085     0.4395384
O           0.6767625     0.0113146     0.7992557
19
259_C7H9NOS_18-0-1-14 (45,) energy =    -800.3092683
C           0.9796756    -0.9660142     0.1494791
N           2.1347626    -1.0074448    -0.6641061
C           2.3833975    -2.1755597    -1.5109723
H           1.4490569    -2.5143297    -1.9597277
H           2.8396052    -3.0160432    -0.9672262
H           3.0562656    -1.8796161    -2.3194050
C           0.1872684    -2.2563230     0.2979103
H          -0.5229119    -2.1085613     1.1127107
H           0.8225495    -3.1219313     0.5117747
H          -0.3830124    -2.4748708    -0.6129255
C           4.6553964     1.3547044     0.6693044
H           4.8993486     2.3270393     1.0840613
C           3.3340378     0.9818535     0.2759700
H           2.4603339     1.6108872     0.3671657
C           3.2728766    -0.2886030    -0.2366569
S           4.8686801    -1.0455071    -0.2372483
C           5.5876926     0.3840991     0.4461783
H           6.6566283     0.4185515     0.6056799
O           0.5774149     0.0798170     0.6247856
19
259_C7H9NOS_18-0-1-14 (60,) energy =    -800.3037836
C           0.9312627    -0.9502511     0.0884792
N           2.0682425    -0.9461244    -0.7749918
C           2.3101742    -2.1218282    -1.6132371
H           1.3764476    -2.4379064    -2.0821094
H           2.7363766    -2.9757932    -1.0646312
H           3.0059298    -1.8391001    -2.4069227
C           0.3202944    -2.2992178     0.4305197
H          -0.4011680    -2.1444604     1.2340740
H           1.0773160    -3.0266172     0.7425474
H          -0.2115580    -2.7213089    -0.4301669
C           4.6060382     1.3080248     0.6971520
H           4.8653375     2.2749330     1.1152358
C           3.3010062     0.9874215     0.2143697
H           2.4503636     1.6552468     0.2340200
C           3.2178808    -0.2852646    -0.2879433
S           4.7741605    -1.1139891    -0.1648877
C           5.5070682     0.2940705     0.5487979
H           6.5645318     0.2875090     0.7748261
O           0.4206322     0.0911686     0.4461229
19
259_C7H9NOS_18-0-1-14 (75,) energy =    -800.2984982
C           0.8959774    -0.9131126    -0.0044023
N           2.0299113    -0.8750038    -0.8981984
C           2.2529941    -2.0540899    -1.7366523
H           1.3170117    -2.3341622    -2.2261475
H           2.6395856    -2.9274903    -1.1877998
H           2.9737677    -1.7888243    -2.5141776
C           0.4967274    -2.2681978     0.5514209
H          -0.2765423    -2.1188691     1.3063172
H           1.3586324    -2.7811950     0.9933115
H           0.0964115    -2.9169767    -0.2357246
C           4.5783491     1.2404929     0.7438336
H           4.8584624     2.1965022     1.1733475
C           3.2980172     0.9841185     0.1672236
H           2.4845283     1.6970121     0.1192338
C           3.1829311    -0.2854314    -0.3374051
S           4.6814074    -1.1954225    -0.0921005
C           5.4331854     0.1791235     0.6653128
H           6.4716975     0.1231773     0.9617945
O           0.2664056     0.0934293     0.2275962
19
259_C7H9NOS_18-0-1-14 (90,) energy =    -800.3010234
C           0.9263007    -1.2400287    -0.2456746
N           2.2355476    -1.6231469    -0.7359143
C           2.2850114    -1.6821772    -2.2162264
H           1.5327107    -2.3938775    -2.5686322
H           3.2734382    -2.0426426    -2.5100716
H           2.0995178    -0.7060304    -2.6794734
C           0.5486739    -1.9126789     1.0521928
H          -0.3207260    -1.4227078     1.4944720
H           1.3922814    -1.9003237     1.7495401
H           0.3127958    -2.9656076     0.8547309
C           4.4513613     1.0198485     0.6566805
H           4.6213995     2.0518449     0.9441685
C           3.2217552     0.5462378     0.1058518
H           2.3524410     1.1674765    -0.0774241
C           3.2504701    -0.7921119    -0.1954632
S           4.8078133    -1.4957606     0.2262477
C           5.4021497     0.0436315     0.7653892
H           6.4193241     0.1378551     1.1216322
O           0.2332778    -0.4247219    -0.8152534
19
259_C7H9NOS_18-0-1-14 (105,) energy =    -800.3064425
C           0.8923143    -1.3120549    -0.3153061
N           2.2081323    -1.6056704    -0.8029237
C           2.2881276    -1.6361545    -2.2804714
H           1.5403073    -2.3355010    -2.6622988
H           3.2831004    -1.9892274    -2.5608370
H           2.1111497    -0.6503801    -2.7259746
C           0.6195533    -1.8182065     1.0844835
H          -0.1947136    -1.2472965     1.5350341
H           1.5122791    -1.7744282     1.7134400
H           0.3147271    -2.8704234     1.0193760
C           4.3800786     1.0034907     0.7037989
H           4.5356280     2.0286759     1.0219170
C           3.1659645     0.5325874     0.1181489
H           2.2939068     1.1506303    -0.0668050
C           3.2129167    -0.7968608    -0.2168602
S           4.7694781    -1.4968335     0.2106255
C           5.3374414     0.0324679     0.8035070
H           6.3467162     0.1258536     1.1817466
O           0.0804492    -0.6975060    -0.9772367
19
259_C7H9NOS_18-0-1-14 (120,) energy =    -800.3116722
C           0.8556307    -1.3924086    -0.3726427
N           2.1738601    -1.5651596    -0.8653396
C           2.2692312    -1.5941308    -2.3390636
H           1.5449942    -2.3124961    -2.7278454
H           3.2783925    -1.9113798    -2.6109546
H           2.0632150    -0.6130914    -2.7830740
C           0.6565056    -1.7329616     1.0917985
H          -0.0356643    -1.0192218     1.5451948
H           1.5909875    -1.7629823     1.6548220
H           0.1909828    -2.7249450     1.1442522
C           4.3362925     0.9887926     0.7373358
H           4.4898257     2.0038994     1.0870224
C           3.1272007     0.5358314     0.1281326
H           2.2575279     1.1608015    -0.0459171
C           3.1750450    -0.7833236    -0.2439541
S           4.7287137    -1.4959834     0.1730540
C           5.2918828     0.0140601     0.8165220
H           6.2974532     0.0947413     1.2073261
O          -0.0509888    -1.0107300    -1.0892930
19
259_C7H9NOS_18-0-1-14 (135,) energy =    -800.3161708
C           0.8142855    -1.5689554    -0.3902683
N           2.1232140    -1.5411014    -0.9004839
C           2.2277761    -1.5623961    -2.3702524
H           1.5634010    -2.3342078    -2.7610407
H           3.2609748    -1.7922715    -2.6396465
H           1.9426381    -0.6001283    -2.8124455
C           0.6769270    -1.7293839     1.1142416
H           0.3330687    -0.7898691     1.5594234
H           1.6051084    -2.0322067     1.6025306
H          -0.0993133    -2.4782166     1.2966196
C           4.1942705     1.0207981     0.8014366
H           4.3172692     2.0305577     1.1775909
C           3.0073533     0.5536094     0.1610215
H           2.1267347     1.1630582    -0.0133036
C           3.0912736    -0.7552337    -0.2389965
S           4.6569707    -1.4389221     0.1850680
C           5.1711692     0.0667613     0.8757463
H           6.1661761     0.1608649     1.2899330
O          -0.1543442    -1.4653732    -1.1238481
19
259_C7H9NOS_18-0-1-14 (150,) energy =    -800.3193621
C           0.8485043    -1.7140617    -0.3116893
N           2.1252840    -1.5151177    -0.8447529
C           2.2387679    -1.5464562    -2.3102795
H           1.6013102    -2.3428664    -2.6948657
H           3.2806823    -1.7388214    -2.5761221
H           1.9216849    -0.5975794    -2.7605227
C           0.7348966    -1.7531330     1.2031684
H           0.5228874    -0.7516522     1.5933362
H           1.6424907    -2.1191137     1.6891941
H          -0.1115529    -2.3964882     1.4528236
C           4.2278761     0.9686851     0.9282130
H           4.3726735     1.9723900     1.3126746
C           3.0451315     0.5419495     0.2531150
H           2.1896176     1.1799995     0.0576223
C           3.0949423    -0.7683885    -0.1466680
S           4.6282805    -1.5026207     0.3154319
C           5.1701723    -0.0175668     1.0275793
H           6.1535479     0.0419513     1.4747517
O          -0.1220739    -1.8498660    -1.0398872
19
259_C7H9NOS_18-0-1-14 (165,) energy =    -800.3210362
C           0.8331244    -1.7358769    -0.3612521
N           2.0553580    -1.3798682    -0.9298361
C           2.1865409    -1.4413604    -2.3902007
H           1.4462134    -2.1455151    -2.7686504
H           3.1948747    -1.7759689    -2.6489696
H           2.0110833    -0.4593881    -2.8467846
C           0.7420262    -1.6869886     1.1549808
H           0.6306255    -0.6546789     1.5037143
H           1.6299622    -2.1027334     1.6397243
H          -0.1439292    -2.2519109     1.4488068
C           4.2877732     0.9613844     0.8729158
H           4.4894320     1.9538360     1.2609093
C           3.0889949     0.6084867     0.1836217
H           2.2762959     1.2974315    -0.0211556
C           3.0590194    -0.7029822    -0.2130736
S           4.5418928    -1.5302285     0.2636175
C           5.1647300    -0.0819934     0.9850758
H           6.1422943    -0.0849683     1.4487186
O          -0.1131973    -2.0718469    -1.0573016
19
259_C7H9NOS_18-0-1-14 (180,) energy =    -800.3215879
C           0.8654423    -1.8281045    -0.3399047
N           1.9982837    -1.2754752    -0.9368925
C           2.1718199    -1.4016623    -2.3876061
H           1.2851473    -1.8953509    -2.7841606
H           3.0611684    -1.9989356    -2.6194093
H           2.2851055    -0.4118178    -2.8420103
C           0.7594576    -1.6994716     1.1704022
H           0.6764524    -0.6512215     1.4747936
H           1.6369980    -2.1153280     1.6756470
H          -0.1348865    -2.2387607     1.4846132
C           4.2883430     1.0048170     0.8673822
H           4.5145034     1.9932368     1.2520590
C           3.0829536     0.6801159     0.1757534
H           2.2884201     1.3880593    -0.0349050
C           3.0164620    -0.6323153    -0.2117880
S           4.4799325    -1.4960595     0.2709059
C           5.1357743    -0.0613566     0.9899899
H           6.1086430    -0.0892396     1.4626772
O           0.0016952    -2.3795437    -1.0052484
