28
025_C14H14_0-10-11-23 (-165,) energy =    -541.9248073
C          -0.2337146    -0.7683487    -0.7741062
H          -0.2624663    -1.1195271    -1.8010011
C          -1.4064641    -0.8131225    -0.0197675
H          -2.3175463    -1.2015686    -0.4680966
C          -1.4119572    -0.3628960     1.3008862
H          -2.3241080    -0.3993966     1.8905808
C          -0.2329438     0.1372381     1.8522863
H          -0.2195006     0.4970574     2.8780893
C           0.9385849     0.1805991     1.0941000
H           1.8444608     0.5757865     1.5416431
C           0.9648564    -0.2783892    -0.2311441
C           2.2324215    -0.1715024    -1.0945543
H           2.1104313     0.7302269    -1.7132846
C           2.4039570    -1.3564374    -2.0725432
H           2.4549130    -2.3105993    -1.5371762
H           3.3307176    -1.2374912    -2.6430239
H           1.5795434    -1.4166993    -2.7894783
C           5.9274142     0.3775089     1.1225859
H           6.8580305     0.5112092     1.6676788
C           5.4593162     1.3792235     0.2730177
H           6.0233724     2.3004558     0.1515461
C           4.2624400     1.2020313    -0.4256499
H           3.9052582     1.9885753    -1.0871467
C           3.5132463     0.0274072    -0.2913919
C           3.9953307    -0.9711906     0.5693627
H           3.4250640    -1.8875636     0.6996380
C           5.1888190    -0.7995641     1.2692105
H           5.5431802    -1.5857568     1.9310607
28
025_C14H14_0-10-11-23 (-150,) energy =    -541.9254442
C          -0.1498739    -0.9755231    -0.6558361
H          -0.1252319    -1.4897964    -1.6109991
C          -1.3097668    -1.0574580     0.1183025
H          -2.1577721    -1.6309689    -0.2476120
C          -1.3813628    -0.4103139     1.3508725
H          -2.2828093    -0.4744493     1.9545156
C          -0.2807118     0.3215999     1.7999416
H          -0.3201192     0.8344157     2.7577188
C           0.8760771     0.3987847     1.0254372
H           1.7238916     0.9705853     1.3907334
C           0.9678847    -0.2528984    -0.2151758
C           2.2205388    -0.0821262    -1.0862369
H           2.0947672     0.8695758    -1.6245735
C           2.3904435    -1.1741904    -2.1633132
H           2.4438277    -2.1727592    -1.7154643
H           3.3172792    -1.0044845    -2.7201541
H           1.5654542    -1.1665639    -2.8831073
C           5.9279757     0.2621368     1.1504186
H           6.8618793     0.3424281     1.7003621
C           5.5348267     1.2779108     0.2797867
H           6.1607462     2.1566954     0.1471418
C           4.3327094     1.1703243    -0.4242806
H           4.0340385     1.9671068    -1.1024944
C           3.5044209     0.0524445    -0.2724385
C           3.9107289    -0.9607734     0.6093947
H           3.2751667    -1.8312318     0.7525048
C           5.1096455    -0.8588800     1.3132105
H           5.4054206    -1.6547195     1.9920995
28
025_C14H14_0-10-11-23 (-135,) energy =    -541.9262653
C          -0.0367809    -1.1380385    -0.5480374
H           0.0642864    -1.7714217    -1.4232375
C          -1.1811158    -1.2655371     0.2455132
H          -1.9438713    -1.9909895    -0.0262035
C          -1.3453094    -0.4687955     1.3763287
H          -2.2349463    -0.5671005     1.9927365
C          -0.3533829     0.4574726     1.7094747
H          -0.4676428     1.0866593     2.5886008
C           0.7867165     0.5782721     0.9186092
H           1.5551299     1.2970397     1.1913828
C           0.9682012    -0.2183689    -0.2242850
C           2.2108478    -0.0041999    -1.0968194
H           2.0918771     0.9836743    -1.5662641
C           2.3628006    -1.0196124    -2.2450929
H           2.4635875    -2.0429060    -1.8659575
H           3.2614365    -0.7901678    -2.8262737
H           1.5052697    -0.9884521    -2.9260270
C           5.9201600     0.1376696     1.1599266
H           6.8534617     0.1675500     1.7159192
C           5.5856624     1.1757499     0.2909179
H           6.2573661     2.0212466     0.1658745
C           4.3837450     1.1337769    -0.4201447
H           4.1309349     1.9471702    -1.0974186
C           3.4973459     0.0600636    -0.2761518
C           3.8445212    -0.9756898     0.6039046
H           3.1615835    -1.8106059     0.7402736
C           5.0435936    -0.9395904     1.3140368
H           5.2932381    -1.7518143     1.9920717
28
025_C14H14_0-10-11-23 (-120,) energy =    -541.9267526
C           0.0921238    -1.2519696    -0.4078412
H           0.2840050    -1.9762065    -1.1930890
C          -1.0347788    -1.4179763     0.4040864
H          -1.6941618    -2.2661260     0.2376622
C          -1.3139015    -0.5029381     1.4166112
H          -2.1906432    -0.6298707     2.0461117
C          -0.4549019     0.5819888     1.6143629
H          -0.6609463     1.3048357     2.3997168
C           0.6676045     0.7409863     0.8060553
H           1.3347066     1.5836893     0.9730619
C           0.9622093    -0.1720940    -0.2198122
C           2.1995759     0.0686324    -1.0887789
H           2.0963636     1.0822256    -1.5017107
C           2.3273862    -0.8867996    -2.2895504
H           2.4767663    -1.9231636    -1.9665839
H           3.1928611    -0.6050071    -2.8976165
H           1.4361320    -0.8492574    -2.9260349
C           5.9129146     0.0195391     1.1677422
H           6.8462210     0.0025605     1.7242896
C           5.6221397     1.0828651     0.3134050
H           6.3284676     1.9014250     0.2002676
C           4.4197523     1.1010211    -0.3972927
H           4.2013493     1.9339301    -1.0628206
C           3.4893114     0.0629095    -0.2680485
C           3.7921410    -0.9984043     0.5970882
H           3.0748296    -1.8055026     0.7238651
C           4.9919554    -1.0218813     1.3068019
H           5.2068520    -1.8527847     1.9740129
28
025_C14H14_0-10-11-23 (-105,) energy =    -541.9267570
C           0.2347811    -1.3281471    -0.2403808
H           0.5354939    -2.1214131    -0.9179877
C          -0.8813023    -1.5242433     0.5786172
H          -1.4243605    -2.4646680     0.5285230
C          -1.3000137    -0.5205525     1.4501769
H          -2.1696604    -0.6707836     2.0843306
C          -0.5922778     0.6832968     1.4983762
H          -0.9097191     1.4760632     2.1710116
C           0.5203891     0.8727227     0.6819618
H           1.0686125     1.8112145     0.7308203
C           0.9542669    -0.1275014    -0.2019374
C           2.1905781     0.1332908    -1.0630315
H           2.1061678     1.1678038    -1.4225613
C           2.2873563    -0.7652170    -2.3110522
H           2.4550854    -1.8141912    -2.0436095
H           3.1321737    -0.4504523    -2.9321909
H           1.3739592    -0.7052381    -2.9136248
C           5.9205914    -0.0996175     1.1575224
H           6.8578147    -0.1606967     1.7043074
C           5.6545154     0.9959494     0.3362429
H           6.3842898     1.7958049     0.2391393
C           4.4469490     1.0706297    -0.3611585
H           4.2478669     1.9287101    -1.0002927
C           3.4863017     0.0575242    -0.2527512
C           3.7642200    -1.0362068     0.5791183
H           3.0248336    -1.8248916     0.6928616
C           4.9694156    -1.1156977     1.2760540
H           5.1642702    -1.9710923     1.9180061
28
025_C14H14_0-10-11-23 (-90,) energy =    -541.9263948
C           0.5642931    -0.0623984     1.3906345
H           1.1311193    -0.1636106     2.3117464
C          -0.6359879     0.6519956     1.4097471
H          -0.9780886     1.1025736     2.3380493
C          -1.3951495     0.7838000     0.2472708
H          -2.3304731     1.3368533     0.2632801
C          -0.9444549     0.1940724    -0.9354647
H          -1.5279656     0.2848385    -1.8481174
C           0.2550019    -0.5165152    -0.9490183
H           0.6001284    -0.9695841    -1.8760454
C           1.0305599    -0.6588645     0.2108285
C           2.3528456    -1.4181569     0.1340646
H           2.2462527    -2.1475212    -0.6793575
C           2.6719540    -2.2219178     1.4132615
H           2.8807611    -1.5636673     2.2632605
H           3.5624881    -2.8393873     1.2559697
H           1.8367932    -2.8779945     1.6833557
C           5.8021118     1.0280428    -0.8859622
H           6.6719657     1.6291358    -1.1371513
C           4.8710103     1.4917952     0.0452819
H           5.0126198     2.4586314     0.5217651
C           3.7511087     0.7234885     0.3649746
H           3.0268023     1.1065365     1.0782108
C           3.5401488    -0.5244790    -0.2365255
C           4.4804584    -0.9759310    -1.1722432
H           4.3319067    -1.9405821    -1.6538053
C           5.6020912    -0.2107949    -1.4957887
H           6.3156565    -0.5815548    -2.2273357
28
025_C14H14_0-10-11-23 (-75,) energy =    -541.9257344
C           0.6870552     0.2770877     1.0776074
H           1.3300939     0.5199354     1.9196147
C          -0.5290699     0.9438008     0.9343328
H          -0.8249655     1.6876009     1.6698498
C          -1.3651405     0.6591873    -0.1479210
H          -2.3135310     1.1780876    -0.2586879
C          -0.9724133    -0.2976484    -1.0831760
H          -1.6148044    -0.5322118    -1.9281928
C           0.2464138    -0.9630370    -0.9341721
H           0.5388704    -1.7148371    -1.6643523
C           1.0968219    -0.6844713     0.1427392
C           2.4235456    -1.4331305     0.2941333
H           2.4088621    -2.2352533    -0.4556265
C           2.5511647    -2.1168871     1.6667533
H           2.5118322    -1.4032303     2.4959358
H           3.4971755    -2.6645411     1.7399312
H           1.7288355    -2.8256317     1.8092196
C           5.7500102     1.1402736    -0.8276626
H           6.5758798     1.7838529    -1.1187386
C           5.4392936     0.9590125     0.5194572
H           6.0236303     1.4616124     1.2861529
C           4.3799620     0.1284419     0.8933749
H           4.1623564    -0.0034689     1.9492058
C           3.6100647    -0.5356564    -0.0700142
C           3.9356806    -0.3439978    -1.4206312
H           3.3502300    -0.8496344    -2.1856549
C           4.9919622     0.4828531    -1.7991015
H           5.2254755     0.6113142    -2.8529773
28
025_C14H14_0-10-11-23 (-60,) energy =    -541.9266411
C           0.8012070     0.4447724     0.8251451
H           1.5373212     0.8464870     1.5173051
C          -0.4280373     1.0850149     0.6779224
H          -0.6468450     1.9730787     1.2654757
C          -1.3749007     0.5923257    -0.2241969
H          -2.3325697     1.0927237    -0.3404759
C          -1.0797188    -0.5445250    -0.9754616
H          -1.8070741    -0.9367546    -1.6817595
C           0.1532318    -1.1838951    -0.8230199
H           0.3733100    -2.0736210    -1.4096489
C           1.1105120    -0.7000493     0.0760810
C           2.4411748    -1.4289419     0.2652839
H           2.4667536    -2.2304535    -0.4859754
C           2.4994082    -2.1126187     1.6433726
H           2.4165622    -1.3892757     2.4618371
H           3.4356604    -2.6677386     1.7701997
H           1.6665278    -2.8157529     1.7444272
C           5.7923544     1.1733331    -0.7032441
H           6.6254108     1.8227172    -0.9588642
C           5.6093937     0.7472614     0.6104890
H           6.3007165     1.0630412     1.3878113
C           4.5393551    -0.0914970     0.9386198
H           4.4229172    -0.4167268     1.9677933
C           3.6324817    -0.5166120    -0.0388741
C           3.8296236    -0.0774080    -1.3578952
H           3.1313076    -0.3912586    -2.1307512
C           4.8950163     0.7553575    -1.6901294
H           5.0269284     1.0784295    -2.7196749
28
025_C14H14_0-10-11-23 (-45,) energy =    -541.9267507
C           0.8528067     0.5666046     0.6359908
H           1.6689928     1.0624170     1.1548613
C          -0.3880950     1.1962702     0.5400548
H          -0.5323506     2.1738958     0.9931162
C          -1.4399710     0.5793537    -0.1406605
H          -2.4052984     1.0723802    -0.2191303
C          -1.2393820    -0.6718684    -0.7242951
H          -2.0483439    -1.1595976    -1.2623273
C           0.0039851    -1.2990763    -0.6243726
H           0.1527452    -2.2745057    -1.0837389
C           1.0660328    -0.6927719     0.0584135
C           2.4030509    -1.4227868     0.2025832
H           2.4318175    -2.1836244    -0.5897631
C           2.4492550    -2.1787858     1.5451382
H           2.3495842    -1.4955339     2.3956909
H           3.3869305    -2.7351195     1.6562720
H           1.6189287    -2.8899880     1.6003791
C           5.7736890     1.2113661    -0.5873755
H           6.6123540     1.8691968    -0.7993476
C           5.5559110     0.7425617     0.7063976
H           6.2255432     1.0333028     1.5119248
C           4.4788089    -0.1073488     0.9779811
H           4.3351116    -0.4657937     1.9925044
C           3.5990506    -0.5011183    -0.0369508
C           3.8315744    -0.0192595    -1.3353003
H           3.1557860    -0.3100750    -2.1367602
C           4.9042436     0.8247839    -1.6113189
H           5.0639672     1.1807593    -2.6259301
28
025_C14H14_0-10-11-23 (-30,) energy =    -541.9263323
C           0.9032356     0.6554037     0.4523735
H           1.7703030     1.2072405     0.8031886
C          -0.3435598     1.2831500     0.4097989
H          -0.4348533     2.3166375     0.7345238
C          -1.4649297     0.5944711    -0.0533069
H          -2.4335870     1.0857767    -0.0910020
C          -1.3300610    -0.7296218    -0.4757071
H          -2.1936043    -1.2755330    -0.8473340
C          -0.0835318    -1.3531085    -0.4301270
H           0.0135896    -2.3834514    -0.7676932
C           1.0505518    -0.6745372     0.0396079
C           2.3897829    -1.4161881     0.1122600
H           2.4106527    -2.1062288    -0.7425792
C           2.4383653    -2.2868589     1.3857703
H           2.3245824    -1.6812133     2.2912785
H           3.3838714    -2.8367906     1.4530963
H           1.6178828    -3.0114453     1.3766176
C           5.7986578     1.2258141    -0.4411490
H           6.6484475     1.8860033    -0.5929582
C           5.4620634     0.7947825     0.8410071
H           6.0495454     1.1182814     1.6965549
C           4.3719623    -0.0585856     1.0357721
H           4.1337067    -0.3867830     2.0428895
C           3.5969145    -0.4952918    -0.0458245
C           3.9488714    -0.0517003    -1.3301779
H           3.3576893    -0.3783937    -2.1831729
C           5.0353491     0.7973672    -1.5301093
H           5.2889167     1.1223283    -2.5359527
28
025_C14H14_0-10-11-23 (-15,) energy =    -541.9257022
C           0.9291507     0.7077801     0.3037902
H           1.8221395     1.2985394     0.4802886
C          -0.3231377     1.3272513     0.3464666
H          -0.3866901     2.3912843     0.5602716
C          -1.4832811     0.5919428     0.1097745
H          -2.4562638     1.0751876     0.1393801
C          -1.3819043    -0.7720537    -0.1745844
H          -2.2769713    -1.3566110    -0.3721321
C          -0.1316815    -1.3861871    -0.2141091
H          -0.0657321    -2.4470615    -0.4477240
C           1.0447946    -0.6606291     0.0336028
C           2.3908912    -1.3972512    -0.0161201
H           2.3839668    -1.9922571    -0.9399365
C           2.4992491    -2.4010064     1.1547666
H           2.4255016    -1.8973572     2.1241786
H           3.4521541    -2.9402285     1.1178250
H           1.6875566    -3.1338552     1.1086628
C           5.8298724     1.2398088    -0.3538564
H           6.6901836     1.8971353    -0.4476598
C           5.3278991     0.9129240     0.9063252
H           5.7959390     1.3163707     1.8006953
C           4.2255725     0.0641560     1.0275065
H           3.8528667    -0.1789423     2.0183771
C           3.6012646    -0.4744653    -0.1066071
C           4.1172918    -0.1344993    -1.3652270
H           3.6471953    -0.5415121    -2.2580395
C           5.2188181     0.7118121    -1.4923766
H           5.6013564     0.9552578    -2.4803015
28
025_C14H14_0-10-11-23 (0,) energy =    -541.9250839
C           0.9046546     0.7551808     0.1328496
H           1.8009712     1.3659876     0.1384572
C          -0.3441888     1.3744963     0.2360597
H          -0.3974922     2.4567587     0.3243308
C          -1.5125850     0.6155561     0.2204213
H          -2.4835635     1.0972628     0.2994366
C          -1.4215398    -0.7724658     0.0934597
H          -2.3232767    -1.3792164     0.0679338
C          -0.1744619    -1.3860862    -0.0064384
H          -0.1269138    -2.4664993    -0.1189426
C           1.0137154    -0.6365616     0.0231412
C           2.3605412    -1.3624291    -0.1247301
H           2.3352143    -1.8649663    -1.1022564
C           2.5272931    -2.4733205     0.9394067
H           2.5182985    -2.0595084     1.9530588
H           3.4765928    -2.9997756     0.7941087
H           1.7191432    -3.2083574     0.8777600
C           5.8489840     1.2274604    -0.2164758
H           6.7258665     1.8688504    -0.2432586
C           5.1819438     0.9971344     0.9885935
H           5.5373284     1.4609806     1.9052492
C           4.0584257     0.1707540     1.0237409
H           3.5494732     0.0065072     1.9698381
C           3.5755918    -0.4423888    -0.1426611
C           4.2543095    -0.1986225    -1.3434785
H           3.8965424    -0.6637035    -2.2596619
C           5.3801882     0.6260781    -1.3844781
H           5.8903153     0.7959161    -2.3291939
28
025_C14H14_0-10-11-23 (15,) energy =    -541.9247754
C           0.8958523     0.7561973    -0.0844087
H           1.7774133     1.3583328    -0.2767614
C          -0.3392848     1.3885745     0.0732143
H          -0.3979286     2.4719333     0.0037276
C          -1.4894010     0.6396671     0.3176994
H          -2.4507511     1.1308861     0.4425767
C          -1.3908933    -0.7502048     0.3962275
H          -2.2779376    -1.3511465     0.5805760
C          -0.1553153    -1.3779030     0.2390110
H          -0.1113501    -2.4613559     0.2970113
C           1.0148716    -0.6383720     0.0020012
C           2.3568852    -1.3546857    -0.2230455
H           2.3186647    -1.7730659    -1.2399196
C           2.5700911    -2.5482533     0.7367930
H           2.5515486    -2.2258459     1.7832724
H           3.5411452    -3.0150696     0.5423285
H           1.8012532    -3.3161722     0.6094492
C           5.8600034     1.2122926    -0.1126133
H           6.7430035     1.8451790    -0.0842581
C           5.0988028     1.0140920     1.0421958
H           5.3875344     1.4943878     1.9736800
C           3.9667400     0.2010244     1.0060376
H           3.3785562     0.0627534     1.9097654
C           3.5694962    -0.4312932    -0.1826317
C           4.3404606    -0.2204966    -1.3318032
H           4.0489425    -0.7008022    -2.2635143
C           5.4760982     0.5926194    -1.3013084
H           6.0586539     0.7395617    -2.2071899
28
025_C14H14_0-10-11-23 (30,) energy =    -541.9252584
C           0.8652445     0.7373266    -0.3277306
H           1.7050173     1.2999169    -0.7237494
C          -0.3521801     1.3849479    -0.1190716
H          -0.4442212     2.4420688    -0.3555164
C          -1.4442096     0.6840557     0.3946955
H          -2.3924902     1.1879179     0.5619998
C          -1.3022975    -0.6703984     0.6931780
H          -2.1416068    -1.2313673     1.0966746
C          -0.0821158    -1.3158997     0.4809715
H          -0.0028355    -2.3701793     0.7252013
C           1.0247113    -0.6267344    -0.0357768
C           2.3574032    -1.3354198    -0.3210996
H           2.3134151    -1.6680206    -1.3695205
C           2.5855694    -2.6034739     0.5291115
H           2.5602796    -2.3765410     1.6006536
H           3.5652179    -3.0333422     0.2977678
H           1.8316735    -3.3707309     0.3256940
C           5.8610642     1.2123810    -0.0050391
H           6.7447327     1.8396198     0.0772272
C           5.0178645     1.0363336     1.0954012
H           5.2438711     1.5279114     2.0382681
C           3.8836397     0.2330262     0.9891141
H           3.2279181     0.1124754     1.8479266
C           3.5677691    -0.4124248    -0.2164599
C           4.4199588    -0.2255779    -1.3107533
H           4.1912689    -0.7168283    -2.2543343
C           5.5575900     0.5794911    -1.2098364
H           6.2036581     0.7108656    -2.0740986
28
025_C14H14_0-10-11-23 (45,) energy =    -541.9261544
C           0.7886688     0.6960755    -0.5622347
H           1.5604452     1.1952964    -1.1420859
C          -0.4121219     1.3548960    -0.3083264
H          -0.5673980     2.3583986    -0.6965070
C          -1.4099271     0.7324378     0.4461095
H          -2.3461751     1.2457265     0.6487212
C          -1.1894117    -0.5519830     0.9386305
H          -1.9535209    -1.0488456     1.5312369
C           0.0158338    -1.2110354     0.6780172
H           0.1598321    -2.2098391     1.0766745
C           1.0237839    -0.6024080    -0.0802069
C           2.3463249    -1.3023821    -0.4158648
H           2.3031588    -1.5500809    -1.4871753
C           2.5679724    -2.6320858     0.3306172
H           2.5932980    -2.4840941     1.4161012
H           3.5253947    -3.0697039     0.0310852
H           1.7810084    -3.3587909     0.1013448
C           5.8464757     1.2137137     0.1210381
H           6.7284698     1.8335126     0.2589189
C           4.9354122     1.0433693     1.1668493
H           5.1068726     1.5318182     2.1227561
C           3.8021354     0.2514466     0.9887033
H           3.0915770     0.1360087     1.8034824
C           3.5566277    -0.3886553    -0.2352779
C           4.4763862    -0.2086413    -1.2748932
H           4.3019006    -0.6964278    -2.2318760
C           5.6125872     0.5858510    -1.1019155
H           6.3115995     0.7139520    -1.9245048
28
025_C14H14_0-10-11-23 (60,) energy =    -541.9267396
C           0.6726214     0.6079165    -0.7601842
H           1.3485102     1.0211684    -1.5054317
C          -0.5142588     1.2732518    -0.4645894
H          -0.7601428     2.1952425    -0.9853687
C          -1.3857407     0.7586178     0.4996116
H          -2.3124901     1.2757266     0.7336757
C          -1.0540222    -0.4238996     1.1568531
H          -1.7219430    -0.8354918     1.9094009
C           0.1376794    -1.0906953     0.8537679
H           0.3699602    -2.0128699     1.3767661
C           1.0193737    -0.5877606    -0.1097954
C           2.3323790    -1.2791961    -0.4863114
H           2.2935511    -1.4513205    -1.5714991
C           2.5360455    -2.6566265     0.1715477
H           2.6267121    -2.5744787     1.2604144
H           3.4585984    -3.1129270    -0.2010509
H           1.7047900    -3.3337955    -0.0550352
C           5.8375818     1.1788651     0.2541261
H           6.7197664     1.7850730     0.4421314
C           4.8812808     0.9981813     1.2566534
H           5.0171874     1.4651382     2.2288864
C           3.7469713     0.2246560     1.0142924
H           3.0002211     0.1022352     1.7949325
C           3.5468263    -0.3862169    -0.2320342
C           4.5115829    -0.1963567    -1.2286615
H           4.3723646    -0.6614314    -2.2026745
C           5.6484386     0.5796382    -0.9909799
H           6.3830067     0.7166133    -1.7805307
28
025_C14H14_0-10-11-23 (75,) energy =    -541.9267457
C           0.5273471     0.4891404    -0.9235826
H           1.0881271     0.8000156    -1.8025946
C          -0.6562352     1.1457591    -0.5938210
H          -1.0147719     1.9590832    -1.2196246
C          -1.3814300     0.7579189     0.5358087
H          -2.3060559     1.2665785     0.7952722
C          -0.9099445    -0.2909024     1.3233236
H          -1.4667328    -0.6056089     2.2024023
C           0.2771218    -0.9482915     0.9867364
H           0.6181624    -1.7704982     1.6084412
C           1.0165348    -0.5672087    -0.1397879
C           2.3259670    -1.2432899    -0.5462367
H           2.2971336    -1.3464042    -1.6394247
C           2.5053895    -2.6614279     0.0298286
H           2.6348140    -2.6439282     1.1174306
H           3.4011290    -3.1255760    -0.3954096
H           1.6429330    -3.2957026    -0.2045994
C           5.8526988     1.1225257     0.3796805
H           6.7400648     1.7052204     0.6123025
C           4.8640208     0.9301621     1.3474855
H           4.9789439     1.3646196     2.3373625
C           3.7226108     0.1868956     1.0483847
H           2.9516034     0.0576428     1.8036506
C           3.5477098    -0.3812822    -0.2211881
C           4.5450322    -0.1790944    -1.1832705
H           4.4254533    -0.6103128    -2.1753325
C           5.6888928     0.5657361    -0.8887850
H           6.4487812     0.7124370    -1.6522245
28
025_C14H14_0-10-11-23 (90,) energy =    -541.9263751
C           0.3392331     0.3776383    -1.0575098
H           0.7827895     0.5954006    -2.0268353
C          -0.8557932     0.9969819    -0.6936257
H          -1.3376809     1.6868558    -1.3817447
C          -1.4344706     0.7264308     0.5478818
H          -2.3673311     1.2046446     0.8343123
C          -0.8077138    -0.1696633     1.4135851
H          -1.2519886    -0.3954576     2.3797218
C           0.3885155    -0.7884794     1.0430265
H           0.8492724    -1.4952400     1.7272413
C           0.9874111    -0.5188566    -0.1955183
C           2.2978445    -1.1645816    -0.6393082
H           2.2770421    -1.1879610    -1.7364945
C           2.4497795    -2.6262822    -0.1655295
H           2.5660971    -2.6891575     0.9216064
H           3.3432059    -3.0745169    -0.6127623
H           1.5784589    -3.2251421    -0.4535900
C           5.8842894     1.0425680     0.4516357
H           6.7878706     1.5830607     0.7208601
C           4.8497147     0.8946656     1.3772778
H           4.9443685     1.3224793     2.3722006
C           3.6870163     0.2052472     1.0311329
H           2.8837907     0.1142231     1.7567943
C           3.5354937    -0.3526809    -0.2453467
C           4.5799073    -0.1932716    -1.1659108
H           4.4792409    -0.6150115    -2.1641906
C           5.7445954     0.4958518    -0.8244040
H           6.5394453     0.6087898    -1.5573745
28
025_C14H14_0-10-11-23 (105,) energy =    -541.9257590
C           0.1285826     0.5236310    -0.7274405
H           0.3307200     1.0313134    -1.6683557
C          -1.0218049     0.8456688    -0.0046235
H          -1.7032397     1.6026207    -0.3845818
C          -1.2958841     0.1963004     1.1991310
H          -2.1904575     0.4431563     1.7646434
C          -0.4081269    -0.7716710     1.6734535
H          -0.6084069    -1.2795985     2.6134927
C           0.7403332    -1.0885150     0.9483359
H           1.4302685    -1.8310847     1.3411991
C           1.0223378    -0.4524518    -0.2685728
C           2.2928452    -0.7729097    -1.0587207
H           2.1964248    -0.2511470    -2.0204735
C           2.4069196    -2.2725766    -1.3831221
H           2.4630220    -2.8919455    -0.4820131
H           3.2994925    -2.4735773    -1.9857966
H           1.5278375    -2.5997478    -1.9476547
C           5.7629107     1.0083988     0.8758736
H           6.6237961     1.4647376     1.3571441
C           4.8533409     1.7949817     0.1643925
H           5.0035105     2.8689181     0.0880434
C           3.7524520     1.2050225    -0.4524148
H           3.0484627     1.8280067    -0.9998913
C           3.5305289    -0.1785857    -0.3780909
C           4.4509989    -0.9544160     0.3364099
H           4.3174777    -2.0296211     0.4075784
C           5.5566714    -0.3674518     0.9585715
H           6.2582602    -0.9922543     1.5056191
28
025_C14H14_0-10-11-23 (120,) energy =    -541.9266009
C          -0.0005729     0.3633416    -0.8459486
H           0.1205664     0.7352884    -1.8613976
C          -1.1711591     0.6527571    -0.1402793
H          -1.9492811     1.2505476    -0.6081633
C          -1.3386081     0.1778422     1.1599422
H          -2.2470724     0.4020343     1.7126360
C          -0.3264967    -0.5847445     1.7489509
H          -0.4443396    -0.9538078     2.7646585
C           0.8402160    -0.8693085     1.0414228
H           1.6293197    -1.4469311     1.5167351
C           1.0179793    -0.4045535    -0.2698644
C           2.2892986    -0.7288982    -1.0556109
H           2.2114882    -0.1888848    -2.0092349
C           2.3554715    -2.2280158    -1.3994506
H           2.3657898    -2.8536154    -0.5002988
H           3.2505753    -2.4596670    -1.9875903
H           1.4757576    -2.5142682    -1.9847582
C           5.7972665     0.9140183     0.9281080
H           6.6685550     1.3375642     1.4205357
C           4.8424104     1.7499081     0.3423545
H           4.9678207     2.8291782     0.3766273
C           3.7278728     1.2030898    -0.2886118
H           2.9856738     1.8613345    -0.7350861
C           3.5374369    -0.1862748    -0.3545168
C           4.5024208    -1.0113102     0.2346791
H           4.3926480    -2.0906801     0.1957153
C           5.6220654    -0.4670577     0.8718483
H           6.3580977    -1.1291833     1.3210074
28
025_C14H14_0-10-11-23 (135,) energy =    -541.9267872
C          -0.0989518     0.1926581    -0.9102795
H          -0.0411342     0.4301247    -1.9708462
C          -1.2866975     0.4274273    -0.2145709
H          -2.1429661     0.8484330    -0.7354632
C          -1.3714570     0.1266379     1.1449716
H          -2.2931585     0.3105085     1.6906388
C          -0.2600354    -0.4077362     1.8008657
H          -0.3139280    -0.6409186     2.8612996
C           0.9246631    -0.6389718     1.1023659
H           1.7884847    -1.0408977     1.6255807
C           1.0220606    -0.3437333    -0.2647125
C           2.2947283    -0.6489073    -1.0569421
H           2.2289612    -0.0719828    -1.9898743
C           2.3254782    -2.1369306    -1.4568589
H           2.3183528    -2.7909734    -0.5780093
H           3.2145527    -2.3698896    -2.0538160
H           1.4389641    -2.3807559    -2.0509520
C           5.8453965     0.8271716     0.9779792
H           6.7283644     1.2099945     1.4827776
C           4.9047914     1.7084229     0.4371310
H           5.0527878     2.7822642     0.5187554
C           3.7754205     1.2133496    -0.2098411
H           3.0448654     1.9061011    -0.6220888
C           3.5552548    -0.1676704    -0.3373396
C           4.5064398    -1.0380418     0.2074482
H           4.3739843    -2.1120362     0.1216054
C           5.6409694    -0.5459535     0.8608404
H           6.3654888    -1.2427743     1.2747830
28
025_C14H14_0-10-11-23 (150,) energy =    -541.9264318
C          -0.1702288    -0.0304835    -0.9465823
H          -0.1625403     0.0738927    -2.0301151
C          -1.3680009     0.1233445    -0.2486184
H          -2.2835412     0.3480911    -0.7899907
C          -1.3883434    -0.0049690     1.1414993
H          -2.3186761     0.1179229     1.6896634
C          -0.2027435    -0.2872400     1.8209011
H          -0.2058702    -0.3859031     2.9035480
C           0.9943380    -0.4391557     1.1184389
H           1.9120777    -0.6489296     1.6602389
C           1.0286528    -0.3118814    -0.2759205
C           2.3071658    -0.5427503    -1.0878450
H           2.2367129     0.1050357    -1.9727248
C           2.3431875    -1.9962215    -1.6043061
H           2.3174577    -2.7164546    -0.7794078
H           3.2441850    -2.1826851    -2.1996500
H           1.4683128    -2.1922278    -2.2323172
C           5.8760685     0.7587562     1.0282930
H           6.7649085     1.0973763     1.5539502
C           5.0075995     1.6839129     0.4430825
H           5.2177993     2.7483063     0.5103954
C           3.8712220     1.2442344    -0.2322274
H           3.1981875     1.9711649    -0.6820837
C           3.5723159    -0.1229210    -0.3430713
C           4.4523335    -1.0382253     0.2471977
H           4.2573837    -2.1038173     0.1757123
C           5.5932979    -0.6022620     0.9277834
H           6.2620755    -1.3327385     1.3760282
28
025_C14H14_0-10-11-23 (165,) energy =    -541.9257312
C          -0.2493217    -0.2464259    -0.9049192
H          -0.2760701    -0.2665587    -1.9927037
C          -1.4456188    -0.1758581    -0.1938636
H          -2.3911253    -0.1460279    -0.7295944
C          -1.4287939    -0.1390746     1.2026144
H          -2.3594636    -0.0830008     1.7610124
C          -0.2061489    -0.1699996     1.8709926
H          -0.1783764    -0.1375571     2.9573129
C           0.9917395    -0.2388266     1.1538841
H           1.9345489    -0.2546557     1.6910466
C           0.9898057    -0.2789517    -0.2450866
C           2.2707562    -0.3995940    -1.0829482
H           2.1878909     0.3448191    -1.8871261
C           2.3352824    -1.7841782    -1.7666141
H           2.3348251    -2.5957359    -1.0316062
H           3.2390467    -1.8739595    -2.3793705
H           1.4651478    -1.9338175    -2.4133740
C           5.8891350     0.6348214     1.0934043
H           6.7933488     0.9026980     1.6334628
C           5.1834777     1.6025663     0.3763200
H           5.5357749     2.6306548     0.3536497
C           4.0259288     1.2515256    -0.3180547
H           3.4822199     2.0123607    -0.8742085
C           3.5459202    -0.0661148    -0.3157918
C           4.2653896    -1.0265428     0.4091429
H           3.9240328    -2.0573564     0.4316623
C           5.4245836    -0.6806424     1.1072138
H           5.9660685    -1.4439077     1.6603373
28
025_C14H14_0-10-11-23 (180,) energy =    -541.9250152
C          -0.2574068    -0.5096276    -0.8525511
H          -0.3005881    -0.6772082    -1.9257731
C          -1.4438155    -0.5161946    -0.1213529
H          -2.3876294    -0.6977023    -0.6294756
C          -1.4210629    -0.2886628     1.2563807
H          -2.3443335    -0.2949377     1.8296289
C          -0.2009350    -0.0480760     1.8848581
H          -0.1660558     0.1372919     2.9555387
C           0.9863768    -0.0398560     1.1475644
H           1.9241981     0.1552364     1.6563392
C           0.9818878    -0.2762445    -0.2329522
C           2.2602592    -0.2628456    -1.0867587
H           2.1519679     0.5708078    -1.7955697
C           2.3951733    -1.5496595    -1.9353701
H           2.4619505    -2.4400955    -1.3017353
H           3.2975811    -1.5027657    -2.5541028
H           1.5363442    -1.6825425    -2.5999714
C           5.9330304     0.5146448     1.1024744
H           6.8556635     0.7106752     1.6422406
C           5.3753669     1.4947040     0.2815962
H           5.8612628     2.4614102     0.1768866
C           4.1907438     1.2360024    -0.4108886
H           3.7638897     2.0066367    -1.0493116
C           3.5404680     0.0002546    -0.3021519
C           4.1129109    -0.9752472     0.5287642
H           3.6278002    -1.9414317     0.6397211
C           5.2954168    -0.7219539     1.2241718
H           5.7200837    -1.4931066     1.8618847
