28
025_C14H14_10-11-23-24 (-165,) energy =    -541.9257314
C           0.3242311     0.4859091    -0.9328384
H           0.7356900     0.7946536    -1.8915691
C          -0.8654210     1.0554656    -0.4793058
H          -1.3742821     1.7991754    -1.0872171
C          -1.4025041     0.6670858     0.7492618
H          -2.3308490     1.1057110     1.1053362
C          -0.7381859    -0.2922012     1.5140744
H          -1.1469164    -0.6045179     2.4717527
C           0.4521943    -0.8597906     1.0542401
H           0.9507005    -1.6066621     1.6652259
C           1.0039867    -0.4805394    -0.1775567
C           2.3061158    -1.0681725    -0.7113625
H           2.2626516    -0.9768611    -1.8056722
C           2.4483268    -2.5752536    -0.3989020
H           2.5850471    -2.7523825     0.6729113
H           3.3221381    -2.9921953    -0.9092675
H           1.5611154    -3.1264672    -0.7295152
C           5.9480806     0.9702247     0.5359035
H           6.8655564     1.4656037     0.8423823
C           4.7533077     1.2200153     1.2088984
H           4.7339013     1.9139233     2.0455749
C           3.5719380     0.5860870     0.8137394
H           2.6494948     0.7982415     1.3445827
C           3.5629010    -0.3103054    -0.2611481
C           4.7737250    -0.5514814    -0.9300802
H           4.7896930    -1.2368239    -1.7753474
C           5.9533502     0.0798642    -0.5406033
H           6.8760960    -0.1203677    -1.0794283
28
025_C14H14_10-11-23-24 (-150,) energy =    -541.9264319
C           0.4804414     0.5520406    -0.8753266
H           1.0260451     0.9153357    -1.7437385
C          -0.7019689     1.1810339    -0.4919470
H          -1.0750778     2.0254522    -1.0658676
C          -1.4076923     0.7248348     0.6245093
H          -2.3317223     1.2112346     0.9255134
C          -0.9170628    -0.3622545     1.3456040
H          -1.4575970    -0.7291866     2.2144853
C           0.2692146    -0.9911185     0.9553617
H           0.6273616    -1.8408317     1.5283759
C           0.9878033    -0.5443384    -0.1603101
C           2.2932718    -1.1864700    -0.6238181
H           2.2508084    -1.2214932    -1.7213656
C           2.4767682    -2.6403271    -0.1408055
H           2.6243187    -2.6878141     0.9435426
H           3.3634821    -3.0808971    -0.6075623
H           1.6081897    -3.2562646    -0.4000108
C           5.8889520     1.0321259     0.4089889
H           6.7960291     1.5727084     0.6660663
C           4.7704006     1.0973014     1.2405256
H           4.8027647     1.6903051     2.1511169
C           3.6024940     0.4081212     0.9078797
H           2.7356648     0.4754407     1.5588858
C           3.5308122    -0.3590153    -0.2617754
C           4.6627118    -0.4178702    -1.0873163
H           4.6253030    -1.0073146    -2.0017225
C           5.8308788     0.2701016    -0.7594417
H           6.6933986     0.2147097    -1.4188359
28
025_C14H14_10-11-23-24 (-135,) energy =    -541.9267871
C           0.5807601     0.5528841    -0.8491347
H           1.1890449     0.9189070    -1.6735240
C          -0.6032328     1.2091550    -0.5226293
H          -0.9159666     2.0769567    -1.0977794
C          -1.3878012     0.7522664     0.5401896
H          -2.3128628     1.2613434     0.7973462
C          -0.9734892    -0.3635620     1.2642791
H          -1.5750545    -0.7311217     2.0918250
C           0.2150314    -1.0210264     0.9305029
H           0.5122449    -1.8933560     1.5041932
C           1.0115312    -0.5736401    -0.1299284
C           2.3220514    -1.2488127    -0.5359876
H           2.2852664    -1.3693969    -1.6275886
C           2.5176377    -2.6566875     0.0595795
H           2.6379454    -2.6210653     1.1479058
H           3.4233444    -3.1124891    -0.3530273
H           1.6677302    -3.3083338    -0.1730127
C           5.8509747     1.1348589     0.3325442
H           6.7398847     1.7206112     0.5512465
C           4.8445584     0.9979522     1.2913957
H           4.9477112     1.4787290     2.2609310
C           3.7012983     0.2507616     1.0092616
H           2.9169575     0.1628712     1.7566551
C           3.5419346    -0.3762787    -0.2344614
C           4.5575604    -0.2303041    -1.1876005
H           4.4501512    -0.7080998    -2.1595636
C           5.7031740     0.5182425    -0.9100156
H           6.4769090     0.6213883    -1.6666299
28
025_C14H14_10-11-23-24 (-120,) energy =    -541.9266010
C           0.6143215     0.5155786    -0.8938301
H           1.2461991     0.8533980    -1.7123770
C          -0.5645274     1.1991773    -0.6072991
H          -0.8497255     2.0589900    -1.2082297
C          -1.3789353     0.7805965     0.4487441
H          -2.2998318     1.3116030     0.6746078
C          -0.9992964    -0.3250478     1.2066272
H          -1.6243466    -0.6627531     2.0295083
C           0.1841840    -1.0100684     0.9131501
H           0.4537157    -1.8738934     1.5128969
C           1.0099597    -0.6011006    -0.1402333
C           2.3182125    -1.3100949    -0.5008127
H           2.2916233    -1.4734479    -1.5870787
C           2.4911850    -2.6942348     0.1504341
H           2.5910610    -2.6239828     1.2390622
H           3.3994238    -3.1726078    -0.2298294
H           1.6394496    -3.3462358    -0.0736382
C           5.7867559     1.1918525     0.2746416
H           6.6556913     1.8148804     0.4691443
C           4.9211482     0.8463734     1.3160160
H           5.1136804     1.2031843     2.3246651
C           3.8047172     0.0503618     1.0660307
H           3.1273216    -0.1958349     1.8801587
C           3.5327421    -0.4225902    -0.2261628
C           4.4039499    -0.0641823    -1.2612094
H           4.2076250    -0.4189821    -2.2710367
C           5.5234992     0.7350655    -1.0160908
H           6.1866449     1.0001977    -1.8356512
28
025_C14H14_10-11-23-24 (-105,) energy =    -541.9257593
C           0.5816621     0.3819903    -1.0558732
H           1.1589321     0.5908231    -1.9540199
C          -0.5884355     1.0972575    -0.8104698
H          -0.9188293     1.8520062    -1.5196222
C          -1.3366237     0.8424863     0.3415803
H          -2.2509060     1.3969269     0.5357056
C          -0.9007341    -0.1327558     1.2368952
H          -1.4756623    -0.3438277     2.1350916
C           0.2732604    -0.8484101     0.9852530
H           0.5872937    -1.6098778     1.6928237
C           1.0340400    -0.6020290    -0.1638653
C           2.3393940    -1.3431930    -0.4711224
H           2.3418426    -1.5158179    -1.5557883
C           2.4530434    -2.7261291     0.1935416
H           2.5056002    -2.6627350     1.2853069
H           3.3640981    -3.2294669    -0.1459799
H           1.5934681    -3.3540034    -0.0657058
C           5.7608859     1.2122508     0.3512382
H           6.6128709     1.8552293     0.5554284
C           5.0388194     0.6453559     1.4038594
H           5.3251529     0.8488283     2.4326403
C           3.9452727    -0.1792419     1.1418874
H           3.3832830    -0.5975833     1.9730374
C           3.5549420    -0.4619667    -0.1747427
C           4.2817059     0.1210770    -1.2201794
H           3.9938894    -0.0832598    -2.2494312
C           5.3767870     0.9486800    -0.9634093
H           5.9290130     1.3852564    -1.7917603
28
025_C14H14_10-11-23-24 (-90,) energy =    -541.9263753
C           0.0367064    -0.4197685    -1.2597676
H           0.2251551    -0.8744731    -2.2305079
C          -1.1982755     0.1796943    -1.0086254
H          -1.9604757     0.1911922    -1.7836859
C          -1.4501734     0.7676723     0.2315043
H          -2.4090242     1.2390172     0.4302942
C          -0.4566511     0.7510537     1.2119002
H          -0.6390583     1.2124079     2.1792295
C           0.7768669     0.1506989     0.9560413
H           1.5457184     0.1615743     1.7232897
C           1.0414609    -0.4474361    -0.2831202
C           2.3616791    -1.1658355    -0.5786770
H           2.4466152    -1.2231035    -1.6715703
C           2.3026901    -2.6191767    -0.0600848
H           2.1261319    -2.6562175     1.0200887
H           3.2365366    -3.1508336    -0.2746362
H           1.4783632    -3.1559726    -0.5411609
C           5.8544149     1.0660884     0.7375724
H           6.7275788     1.6291144     1.0562633
C           5.2536270     0.1501575     1.6009140
H           5.6585681    -0.0059929     2.5976136
C           4.1346069    -0.5775804     1.1892414
H           3.6934984    -1.2968534     1.8733831
C           3.5880818    -0.3995385    -0.0894038
C           4.2096944     0.5187962    -0.9479710
H           3.8060730     0.6668406    -1.9474420
C           5.3278016     1.2466620    -0.5428864
H           5.7908267     1.9510823    -1.2292039
28
025_C14H14_10-11-23-24 (-75,) energy =    -541.9267464
C           0.1129034    -0.3814982    -1.3076421
H           0.3275018    -0.8355151    -2.2731551
C          -1.1097417     0.2620161    -1.1050825
H          -1.8357305     0.3081225    -1.9129183
C          -1.3956043     0.8468202     0.1286091
H          -2.3447442     1.3510641     0.2897206
C          -0.4491742     0.7840751     1.1539974
H          -0.6597119     1.2416018     2.1173947
C           0.7710981     0.1417280     0.9465164
H           1.5066579     0.1138266     1.7463465
C           1.0693887    -0.4533614    -0.2872257
C           2.3814056    -1.2075853    -0.5133927
H           2.4791147    -1.3483945    -1.5984105
C           2.3034301    -2.6138296     0.1121625
H           2.1198103    -2.5682055     1.1911364
H           3.2306144    -3.1733470    -0.0561118
H           1.4758274    -3.1750467    -0.3336430
C           5.8241995     1.1738647     0.6700332
H           6.6822846     1.7768439     0.9548318
C           5.4098361     0.1147771     1.4757352
H           5.9447054    -0.1133758     2.3942505
C           4.3085869    -0.6637655     1.1074691
H           4.0125791    -1.4914820     1.7447853
C           3.5987967    -0.3962669    -0.0696799
C           4.0305737     0.6719629    -0.8711062
H           3.4921376     0.8950255    -1.7898421
C           5.1287260     1.4494478    -0.5101264
H           5.4436499     2.2693297    -1.1506614
28
025_C14H14_10-11-23-24 (-60,) energy =    -541.9267397
C           0.1502365    -0.3982621    -1.3493550
H           0.3860708    -0.8846669    -2.2939010
C          -1.0651841     0.2745383    -1.2036730
H          -1.7645984     0.3110023    -2.0350740
C          -1.3775518     0.8996960     0.0032893
H          -2.3212672     1.4259248     0.1197690
C          -0.4651860     0.8487613     1.0602356
H          -0.6971423     1.3370874     2.0033714
C           0.7477052     0.1779845     0.9095094
H           1.4582080     0.1570306     1.7321542
C           1.0722835    -0.4578470    -0.2975474
C           2.3763657    -1.2404789    -0.4520862
H           2.4900084    -1.4485799    -1.5256216
C           2.2655677    -2.6054085     0.2523796
H           2.1077655    -2.4913257     1.3306516
H           3.1673893    -3.2085036     0.0978463
H           1.4113701    -3.1609978    -0.1473826
C           5.8299244     1.1758673     0.6338451
H           6.6906726     1.7866684     0.8927789
C           5.5742819    -0.0073070     1.3231534
H           6.2351289    -0.3257558     2.1254939
C           4.4679062    -0.7950241     0.9884949
H           4.2936471    -1.7148387     1.5375814
C           3.5973219    -0.4143741    -0.0390700
C           3.8663782     0.7836956    -0.7211622
H           3.1960981     1.1021991    -1.5163229
C           4.9684537     1.5693774    -0.3943186
H           5.1555581     2.4903646    -0.9406986
28
025_C14H14_10-11-23-24 (-45,) energy =    -541.9261547
C           0.1890877    -0.4086062    -1.3938836
H           0.4600115    -0.9127354    -2.3194366
C          -1.0236268     0.2804779    -1.3130186
H          -1.6854045     0.3113281    -2.1748707
C          -1.3814558     0.9282299    -0.1311135
H          -2.3233716     1.4662627    -0.0649892
C          -0.5174849     0.8840050     0.9663389
H          -0.7855057     1.3890752     1.8909071
C           0.6923459     0.1969772     0.8799460
H           1.3645682     0.1798534     1.7342894
C           1.0630085    -0.4619662    -0.3018185
C           2.3609585    -1.2628014    -0.3815160
H           2.4852331    -1.5456636    -1.4376695
C           2.2231838    -2.5783468     0.4090106
H           2.1253695    -2.3923727     1.4844904
H           3.0853958    -3.2353234     0.2510821
H           1.3280963    -3.1156729     0.0804276
C           5.8591904     1.1503996     0.5829320
H           6.7312783     1.7574778     0.8109731
C           5.7319759    -0.1296290     1.1179516
H           6.5055650    -0.5284141     1.7694285
C           4.6092694    -0.9097532     0.8247389
H           4.5360748    -1.9020513     1.2575141
C           3.5925417    -0.4284042    -0.0093179
C           3.7321885     0.8674508    -0.5337549
H           2.9500985     1.2686112    -1.1728726
C           4.8508694     1.6465257    -0.2473663
H           4.9335751     2.6448971    -0.6695457
28
025_C14H14_10-11-23-24 (-30,) energy =    -541.9252583
C           0.2475046    -0.4197762    -1.4267500
H           0.5718666    -0.9221041    -2.3358329
C          -0.9637899     0.2767981    -1.4177626
H          -1.5711825     0.3135804    -2.3185032
C          -1.3898524     0.9227270    -0.2578179
H          -2.3311055     1.4658458    -0.2469366
C          -0.5951402     0.8690676     0.8904443
H          -0.9164825     1.3718540     1.7991202
C           0.6128557     0.1737210     0.8757669
H           1.2289527     0.1486119     1.7712237
C           1.0525274    -0.4836080    -0.2837449
C           2.3473027    -1.2906966    -0.2874880
H           2.4791786    -1.6568895    -1.3171479
C           2.1917176    -2.5417218     0.6034696
H           2.1381988    -2.2730836     1.6642712
H           3.0230853    -3.2415246     0.4710156
H           1.2698432    -3.0705766     0.3418118
C           5.9000711     1.1064459     0.5341501
H           6.7867368     1.7043020     0.7277722
C           5.8685266    -0.2432558     0.8821619
H           6.7331591    -0.7062638     1.3511728
C           4.7270699    -1.0094196     0.6358721
H           4.7327973    -2.0566238     0.9200641
C           3.5908289    -0.4484009     0.0348946
C           3.6385761     0.9127407    -0.3061660
H           2.7728494     1.3774531    -0.7677859
C           4.7772892     1.6806274    -0.0636547
H           4.7835010     2.7321192    -0.3397379
28
025_C14H14_10-11-23-24 (-15,) energy =    -541.9247754
C           0.3255332    -0.4079438    -1.4466451
H           0.7112038    -0.8932366    -2.3407949
C          -0.8808594     0.2937737    -1.5096454
H          -1.4237055     0.3499892    -2.4497200
C          -1.3858806     0.9188197    -0.3700757
H          -2.3242097     1.4652737    -0.4144191
C          -0.6744508     0.8381519     0.8297848
H          -1.0576501     1.3238333     1.7236465
C           0.5286847     0.1359140     0.8869061
H           1.0762177     0.0889534     1.8248797
C           1.0481934    -0.5004745    -0.2513862
C           2.3419517    -1.3048521    -0.1894603
H           2.4752289    -1.7565267    -1.1838087
C           2.1879087    -2.4755476     0.8092294
H           2.1191056    -2.1128175     1.8402926
H           3.0304494    -3.1713723     0.7547327
H           1.2764449    -3.0395090     0.5859507
C           5.9501717     1.0657701     0.4615469
H           6.8534184     1.6504740     0.6143494
C           5.9773005    -0.3231915     0.5946336
H           6.9048562    -0.8296372     0.8498244
C           4.8160288    -1.0711757     0.4014144
H           4.8698870    -2.1509172     0.5035140
C           3.5969410    -0.4559096     0.0732242
C           3.5902916     0.9393276    -0.0669986
H           2.6683714     1.4468421    -0.3300709
C           4.7506207     1.6920102     0.1264074
H           4.7118875     2.7725973     0.0134117
28
025_C14H14_10-11-23-24 (0,) energy =    -541.9250839
C           0.4111161    -0.3808480    -1.4516161
H           0.8605809    -0.8441805    -2.3273892
C          -0.7830471     0.3300581    -1.5854863
H          -1.2544946     0.4141759    -2.5613138
C          -1.3691637     0.9278745    -0.4697858
H          -2.2994617     1.4807940    -0.5689688
C          -0.7503769     0.8086106     0.7764268
H          -1.1972370     1.2709542     1.6529328
C           0.4419610     0.0955423     0.9043836
H           0.9116740     0.0169397     1.8812650
C           1.0430294    -0.5125545    -0.2084312
C           2.3359239    -1.3109025    -0.0892912
H           2.4612297    -1.8455838    -1.0417210
C           2.2159529    -2.3914338     1.0119150
H           2.1312045    -1.9402951     2.0059409
H           3.0913429    -3.0477419     1.0228402
H           1.3292137    -3.0111847     0.8415840
C           5.9828903     1.0397306     0.3665262
H           6.8988101     1.6147379     0.4739435
C           6.0287612    -0.3544414     0.2950225
H           6.9834076    -0.8725288     0.3414940
C           4.8517679    -1.0877990     0.1584443
H           4.9116920    -2.1712958     0.0903407
C           3.5989943    -0.4546210     0.0952980
C           3.5715632     0.9443634     0.1503741
H           2.6232589     1.4666988     0.0842185
C           4.7496180     1.6836178     0.2901048
H           4.6970495     2.7686132     0.3343167
28
025_C14H14_10-11-23-24 (15,) energy =    -541.9257028
C           0.5400626    -0.3037628    -1.4644118
H           1.0901177    -0.7008587    -2.3150055
C          -0.6297008     0.4247293    -1.6808534
H          -0.9847572     0.5868791    -2.6953635
C          -1.3435902     0.9390815    -0.5973071
H          -2.2570849     1.5046539    -0.7606264
C          -0.8751634     0.7172881     0.6981893
H          -1.4230306     1.1112629     1.5504552
C           0.2958634    -0.0137884     0.9088297
H           0.6409029    -0.1762419     1.9258786
C           1.0238557    -0.5371682    -0.1692748
C           2.3107787    -1.3329490     0.0188843
H           2.4217542    -1.9606896    -0.8761417
C           2.2386225    -2.2949721     1.2268791
H           2.2067470    -1.7481842     2.1749675
H           3.1212687    -2.9415993     1.2562438
H           1.3483898    -2.9304792     1.1653006
C           5.9664419     1.0274277     0.2373292
H           6.8861916     1.6038778     0.2907654
C           6.0100472    -0.3501840     0.0093641
H           6.9654647    -0.8524731    -0.1201186
C           4.8275753    -1.0839757    -0.0610782
H           4.8753425    -2.1546548    -0.2501254
C           3.5762090    -0.4671715     0.0990228
C           3.5471369     0.9156067     0.3132706
H           2.5941474     1.4232365     0.4214110
C           4.7310118     1.6551168     0.3867616
H           4.6817686     2.7279124     0.5558896
28
025_C14H14_10-11-23-24 (30,) energy =    -541.9263324
C           0.7007621    -0.2062273    -1.4284867
H           1.3657070    -0.5071220    -2.2354098
C          -0.4478020     0.5267091    -1.7197920
H          -0.6752838     0.7874133    -2.7502865
C          -1.3062284     0.9212830    -0.6904527
H          -2.2044471     1.4908850    -0.9135481
C          -1.0015524     0.5736521     0.6245704
H          -1.6624179     0.8716634     1.4346436
C           0.1513362    -0.1634363     0.9110203
H           0.3635612    -0.4286096     1.9422186
C           1.0218082    -0.5648798    -0.1099526
C           2.2994187    -1.3592562     0.1487558
H           2.3899720    -2.0801890    -0.6755229
C           2.2628119    -2.1816933     1.4543349
H           2.2683736    -1.5340719     2.3376484
H           3.1474101    -2.8232913     1.5186891
H           1.3712986    -2.8175840     1.4962356
C           5.9519048     1.0043250     0.0913050
H           6.8706991     1.5846977     0.0812290
C           5.9648938    -0.3416949    -0.2798645
H           6.8949521    -0.8154433    -0.5837837
C           4.7818722    -1.0800457    -0.2703193
H           4.8001665    -2.1271413    -0.5674157
C           3.5653661    -0.4962290     0.1122368
C           3.5646305     0.8565275     0.4742632
H           2.6320474     1.3356388     0.7573518
C           4.7473578     1.5991015     0.4675163
H           4.7235494     2.6481896     0.7516157
28
025_C14H14_10-11-23-24 (45,) energy =    -541.9267477
C           0.8057238    -0.1846072    -1.4282878
H           1.5391147    -0.4504357    -2.1866526
C          -0.3263952     0.5414628    -1.7896988
H          -0.4739715     0.8308676    -2.8270729
C          -1.2707953     0.8949944    -0.8218573
H          -2.1560186     1.4605611    -1.1003077
C          -1.0675636     0.5123007     0.5023814
H          -1.7953173     0.7783248     1.2648813
C           0.0696061    -0.2192414     0.8597120
H           0.2015063    -0.5132739     1.8963599
C           1.0247421    -0.5784422    -0.0984794
C           2.2891160    -1.3699031     0.2360191
H           2.3764835    -2.1554541    -0.5272840
C           2.2435033    -2.0815599     1.6025010
H           2.2374928    -1.3641661     2.4304551
H           3.1310502    -2.7106827     1.7242205
H           1.3555588    -2.7180043     1.6899719
C           5.9361624     0.9848026     0.0122074
H           6.8530134     1.5663281    -0.0357767
C           5.8881614    -0.2988213    -0.5323782
H           6.7680657    -0.7236660    -1.0088959
C           4.7066841    -1.0401095    -0.4718970
H           4.6770805    -2.0399541    -0.9008883
C           3.5556538    -0.5174345     0.1314664
C           3.6156372     0.7751756     0.6702800
H           2.7284145     1.2067050     1.1261774
C           4.7944200     1.5187943     0.6134908
H           4.8193478     2.5204066     1.0353518
28
025_C14H14_10-11-23-24 (60,) energy =    -541.9266412
C           0.1918549    -1.3047285    -0.2736862
H           0.4186356    -2.1142368    -0.9605384
C          -0.9150207    -1.4254867     0.5727601
H          -1.5238606    -2.3252899     0.5335443
C          -1.2392224    -0.3997123     1.4578845
H          -2.1008063    -0.4920519     2.1137723
C          -0.4463684     0.7510024     1.4925220
H          -0.6888114     1.5600631     2.1769027
C           0.6563045     0.8653735     0.6499366
H           1.2727663     1.7608512     0.6892632
C           0.9951856    -0.1590238    -0.2486446
C           2.2207082     0.0232944    -1.1481163
H           2.1224744     1.0173298    -1.6060448
C           2.3171040    -0.9886953    -2.3039938
H           2.4798453    -2.0091882    -1.9404953
H           3.1628259    -0.7342637    -2.9507642
H           1.4053766    -0.9829573    -2.9119080
C           5.9431654     0.0681855     1.0944958
H           6.8779260     0.0759957     1.6487576
C           5.5795710     1.1642481     0.3130209
H           6.2305443     2.0328230     0.2534346
C           4.3762459     1.1496854    -0.3967410
H           4.1026422     2.0071550    -1.0083470
C           3.5166232     0.0467067    -0.3368590
C           3.8940036    -1.0488401     0.4533642
H           3.2329706    -1.9090723     0.5263794
C           5.0943178    -1.0398423     1.1619113
H           5.3667801    -1.8977561     1.7714254
28
025_C14H14_10-11-23-24 (75,) energy =    -541.9257341
C           0.3033152    -1.3217890    -0.0376362
H           0.6360048    -2.2195383    -0.5503412
C          -0.7979320    -1.4001015     0.8184505
H          -1.2996717    -2.3539048     0.9612571
C          -1.2553859    -0.2628125     1.4829497
H          -2.1139624    -0.3228167     2.1464417
C          -0.6018884     0.9552986     1.2837699
H          -0.9501698     1.8510324     1.7917674
C           0.4968207     1.0277194     0.4291618
H           1.0003928     1.9809193     0.2824703
C           0.9694567    -0.1073263    -0.2454178
C           2.1965919     0.0182426    -1.1533898
H           2.1352472     1.0152842    -1.6093909
C           2.2271330    -0.9937208    -2.3122653
H           2.3533134    -2.0244251    -1.9656900
H           3.0653615    -0.7712492    -2.9806117
H           1.2990483    -0.9459131    -2.8924034
C           5.8947891    -0.0023059     1.1379778
H           6.8205686    -0.0055385     1.7071146
C           5.4095514     1.1841895     0.5887911
H           5.9571231     2.1133087     0.7252306
C           4.2206282     1.1817704    -0.1437478
H           3.8558082     2.1110896    -0.5764161
C           3.4918996     0.0018815    -0.3377695
C           3.9938404    -1.1841760     0.2167447
H           3.4455472    -2.1139885     0.0890529
C           5.1809107    -1.1877755     0.9483238
H           5.5494625    -2.1188027     1.3715531
28
025_C14H14_10-11-23-24 (90,) energy =    -541.9263950
C           0.8630447    -1.0070827     0.7400713
H           1.6557526    -1.7407639     0.8557796
C          -0.2916479    -1.1166550     1.5155487
H          -0.3908919    -1.9408101     2.2175253
C          -1.3122883    -0.1712033     1.3986875
H          -2.2095394    -0.2554621     2.0060537
C          -1.1668826     0.8859669     0.4999106
H          -1.9507693     1.6328918     0.4028143
C          -0.0101442     0.9909462    -0.2741103
H           0.0950555     1.8196596    -0.9717279
C           1.0202876     0.0470912    -0.1697128
C           2.2486270     0.1648944    -1.0769154
H           2.2710577     1.2013744    -1.4376952
C           2.0797401    -0.7353029    -2.3199754
H           1.9611857    -1.7884808    -2.0440417
H           2.9449562    -0.6498507    -2.9870139
H           1.1822102    -0.4435614    -2.8753154
C           5.9663925    -0.4096104     1.1045787
H           6.8926963    -0.5424994     1.6570863
C           5.3929706     0.8578398     0.9844024
H           5.8712997     1.7193695     1.4433373
C           4.2059030     1.0231236     0.2721225
H           3.7645245     2.0139245     0.1869232
C           3.5646090    -0.0649261    -0.3377368
C           4.1530495    -1.3307594    -0.2094336
H           3.6923336    -2.1945623    -0.6801483
C           5.3415379    -1.5024631     0.5043330
H           5.7799272    -2.4938529     0.5864845
28
025_C14H14_10-11-23-24 (105,) energy =    -541.9267571
C          -0.0644268     0.2756286    -0.8100592
H          -0.0085332     0.5702908    -1.8562204
C          -1.2371617     0.5112419    -0.0894358
H          -2.0830970     0.9899359    -0.5762977
C          -1.3201406     0.1368868     1.2516605
H          -2.2300361     0.3210099     1.8166952
C          -0.2220050    -0.4715025     1.8642445
H          -0.2743298    -0.7617863     2.9105654
C           0.9475463    -0.7032349     1.1410040
H           1.8019346    -1.1618105     1.6322856
C           1.0425910    -0.3355699    -0.2085092
C           2.3007509    -0.6298956    -1.0280623
H           2.2195542    -0.0383687    -1.9500728
C           2.3287727    -2.1114172    -1.4504697
H           2.3286557    -2.7805524    -0.5831270
H           3.2144536    -2.3333780    -2.0565212
H           1.4378948    -2.3473582    -2.0414648
C           5.8809919     0.8158310     0.9755380
H           6.7715044     1.1898907     1.4736246
C           4.9953207     1.7001082     0.3540163
H           5.1942325     2.7687300     0.3654497
C           3.8566184     1.2149094    -0.2851730
H           3.1688780     1.9104135    -0.7616607
C           3.5732317    -0.1591838    -0.3231125
C           4.4698106    -1.0339903     0.3025855
H           4.2882679    -2.1043633     0.2862503
C           5.6126840    -0.5514510     0.9473102
H           6.2947948    -1.2508714     1.4241126
28
025_C14H14_10-11-23-24 (120,) energy =    -541.9267528
C          -0.0427407     0.2795777    -0.8600815
H           0.0361116     0.5401401    -1.9137653
C          -1.2189789     0.5679704    -0.1640721
H          -2.0448089     1.0537164    -0.6776930
C          -1.3309543     0.2366553     1.1860369
H          -2.2436556     0.4614785     1.7314789
C          -0.2583754    -0.3818074     1.8335034
H          -0.3339434    -0.6394208     2.8869240
C           0.9144805    -0.6657022     1.1352151
H           1.7496207    -1.1328293     1.6512850
C           1.0385605    -0.3413004    -0.2234423
C           2.3012614    -0.6972749    -1.0081688
H           2.2406959    -0.1532193    -1.9614938
C           2.3080920    -2.1975103    -1.3552874
H           2.3255509    -2.8201913    -0.4538338
H           3.1745917    -2.4603674    -1.9725104
H           1.4017654    -2.4536573    -1.9131093
C           5.8916292     0.8100915     0.9372246
H           6.7853825     1.2004692     1.4166740
C           4.8769881     1.6773542     0.5219177
H           4.9782068     2.7485654     0.6768042
C           3.7335088     1.1725357    -0.0915122
H           2.9456154     1.8543777    -0.4035850
C           3.5719212    -0.2055679    -0.3097329
C           4.5967547    -1.0616926     0.1088813
H           4.5100125    -2.1323488    -0.0464321
C           5.7456771    -0.5594666     0.7289557
H           6.5268967    -1.2459007     1.0457348
28
025_C14H14_10-11-23-24 (135,) energy =    -541.9262655
C          -0.0126665     0.2944347    -0.9018496
H           0.1029241     0.5361210    -1.9565849
C          -1.1978056     0.6296777    -0.2423075
H          -1.9937335     1.1324684    -0.7857997
C          -1.3566697     0.3225844     1.1086713
H          -2.2764910     0.5831735     1.6254846
C          -0.3218125    -0.3188489     1.7944372
H          -0.4342136    -0.5588726     2.8487152
C           0.8596929    -0.6493810     1.1325544
H           1.6649789    -1.1356504     1.6776762
C           1.0310669    -0.3494281    -0.2270616
C           2.3014225    -0.7600703    -0.9687875
H           2.2596719    -0.2686957    -1.9522426
C           2.2939431    -2.2770866    -1.2361579
H           2.3567958    -2.8496879    -0.3038544
H           3.1280465    -2.5764633    -1.8801004
H           1.3636848    -2.5603782    -1.7384975
C           5.9171098     0.8152155     0.8817111
H           6.8180779     1.2232028     1.3321009
C           4.7977650     1.6279110     0.6834342
H           4.8231677     2.6740038     0.9781913
C           3.6433279     1.1017059     0.1088418
H           2.7768368     1.7422988    -0.0335884
C           3.5732524    -0.2453471    -0.2841151
C           4.7048127    -1.0453281    -0.0840389
H           4.6922012    -2.0905178    -0.3752373
C           5.8647164    -0.5224991     0.4962583
H           6.7270703    -1.1677758     0.6441728
28
025_C14H14_10-11-23-24 (150,) energy =    -541.9254442
C           0.0332780     0.3180626    -0.9363892
H           0.1970810     0.5548826    -1.9857348
C          -1.1619327     0.6996115    -0.3213430
H          -1.9172315     1.2318210    -0.8939746
C          -1.3829116     0.3999574     1.0224252
H          -2.3109066     0.6956550     1.5045540
C          -0.3998812    -0.2806555     1.7458066
H          -0.5609633    -0.5159997     2.7948083
C           0.7912694    -0.6579602     1.1278194
H           1.5548762    -1.1761298     1.7027251
C           1.0255402    -0.3657380    -0.2246287
C           2.3042638    -0.8264818    -0.9183185
H           2.2751438    -0.4029145    -1.9337310
C           2.2909945    -2.3606937    -1.0842416
H           2.3978047    -2.8682940    -0.1191190
H           3.0956761    -2.7051025    -1.7420078
H           1.3420750    -2.6771896    -1.5284364
C           5.9446195     0.8300037     0.8209081
H           6.8530104     1.2544801     1.2401462
C           4.7500905     1.5520453     0.8452111
H           4.7223622     2.5465761     1.2833916
C           3.5854131     1.0031621     0.3102863
H           2.6643124     1.5775565     0.3394148
C           3.5793058    -0.2799987    -0.2604739
C           4.7893305    -0.9877336    -0.2856819
H           4.8322169    -1.9802120    -0.7222439
C           5.9578111    -0.4422823     0.2515796
H           6.8795240    -1.0180734     0.2230465
28
025_C14H14_10-11-23-24 (165,) energy =    -541.9248067
C           0.0971651     0.3577920    -0.9608818
H           0.3200309     0.6010296    -1.9976907
C          -1.1037013     0.7917211    -0.3936592
H          -1.8045300     1.3689482    -0.9913434
C          -1.4007778     0.4849311     0.9337188
H          -2.3337730     0.8201621     1.3788906
C          -0.4874780    -0.2558655     1.6884301
H          -0.7075081    -0.4983147     2.7250346
C           0.7090604    -0.6864835     1.1171395
H           1.4149495    -1.2536613     1.7187258
C           1.0204689    -0.3876516    -0.2186735
C           2.3063396    -0.8933716    -0.8634921
H           2.2791234    -0.5618656    -1.9123704
C           2.3095007    -2.4391158    -0.8904283
H           2.4164267    -2.8548789     0.1172151
H           3.1232432    -2.8350001    -1.5056045
H           1.3678321    -2.8064509    -1.3109386
C           5.9650916     0.8573870     0.7505983
H           6.8788135     1.2983096     1.1401917
C           4.7296539     1.4525058     1.0028769
H           4.6726277     2.3653136     1.5906495
C           3.5566443     0.8828591     0.5041337
H           2.6063306     1.3639619     0.7103431
C           3.5856866    -0.2968096    -0.2542687
C           4.8389943    -0.8766106    -0.5081670
H           4.9101277    -1.7815592    -1.1037402
C           6.0133828    -0.3103076    -0.0116862
H           6.9682204    -0.7853363    -0.2228190
28
025_C14H14_10-11-23-24 (180,) energy =    -541.9250148
C           0.1641861     0.3993413    -0.9766869
H           0.4586616     0.6524626    -1.9929906
C          -1.0377191     0.8930138    -0.4654878
H          -1.6694137     1.5241562    -1.0853366
C          -1.4264622     0.5747819     0.8357052
H          -2.3618941     0.9553943     1.2370979
C          -0.6032604    -0.2380567     1.6180283
H          -0.8953873    -0.4917377     2.6339070
C           0.5957665    -0.7296019     1.1013026
H           1.2266228    -1.3564846     1.7259734
C           0.9996592    -0.4196026    -0.2064368
C           2.2952461    -0.9631787    -0.7981457
H           2.2632690    -0.7409818    -1.8745662
C           2.3509775    -2.5041179    -0.6667055
H           2.4338234    -2.8120981     0.3807218
H           3.2102780    -2.9202322    -1.2009167
H           1.4433749    -2.9531322    -1.0837450
C           5.9648458     0.8877449     0.6684141
H           6.8852319     1.3430875     1.0243125
C           4.7300580     1.3237190     1.1445128
H           4.6803001     2.1263672     1.8760771
C           3.5467776     0.7378685     0.6860688
H           2.5963955     1.0966928     1.0661596
C           3.5706878    -0.2996603    -0.2544829
C           4.8235081    -0.7224852    -0.7300676
H           4.8793878    -1.5118848    -1.4753622
C           6.0053589    -0.1391271    -0.2773149
H           6.9596332    -0.4864223    -0.6654456
