22
044_C11H9NO_1-0-17-18 (-165,) energy =    -554.5581510
C           2.4227237    -1.3191212    -0.4891655
C           1.8108894    -1.8124313     0.6768246
H           2.0855293    -1.4323515     1.6539369
C           0.7716252    -2.7369192     0.6030140
H           0.3078634    -3.0832975     1.5225185
C           0.3260027    -3.2046649    -0.6321481
H          -0.4842068    -3.9258843    -0.6896188
C           0.9342554    -2.7245622    -1.7899737
H           0.6055894    -3.0763431    -2.7641543
C           1.9753954    -1.7976456    -1.7320411
H           2.4336427    -1.4416724    -2.6401753
C           5.8841491     1.1224628    -0.0464646
H           6.7691440     1.7366959     0.0984421
C           5.4336747     0.2624587     0.9930217
H           5.9739962     0.1656753     1.9273248
C           4.3197913    -0.4900661     0.7859256
H           3.9931457    -1.2050996     1.5254441
N           3.5669829    -0.4374100    -0.3728135
C           4.0325009     0.3440954    -1.4913007
C           5.2119745     1.1486866    -1.2286597
H           5.5232918     1.7684006    -2.0619982
O           3.4429567     0.3628795    -2.5680412
22
044_C11H9NO_1-0-17-18 (-150,) energy =    -554.5619300
C           2.4457225    -1.3430280    -0.4956056
C           1.7476219    -1.7103363     0.6636259
H           1.9939292    -1.2535891     1.6168767
C           0.6908005    -2.6167517     0.5945401
H           0.1542601    -2.8782919     1.5023528
C           0.3195978    -3.1719662    -0.6293975
H          -0.5060406    -3.8757090    -0.6852689
C           1.0166312    -2.8081382    -1.7820470
H           0.7403049    -3.2346154    -2.7424112
C           2.0776859    -1.9053492    -1.7261383
H           2.6086462    -1.6297227    -2.6248144
C           5.8582663     1.1232657    -0.0475370
H           6.7341432     1.7505248     0.0981959
C           5.5007044     0.1660292     0.9427661
H           6.0982380     0.0174601     1.8343206
C           4.3960920    -0.6025843     0.7373522
H           4.1075164    -1.3812099     1.4307158
N           3.5924503    -0.4758367    -0.3760677
C           3.9434463     0.4221496    -1.4446322
C           5.1145499     1.2375474    -1.1829741
H           5.3603213     1.9429047    -1.9688892
O           3.2713368     0.4954297    -2.4686507
22
044_C11H9NO_1-0-17-18 (-135,) energy =    -554.5637407
C           2.4856262    -1.3905510    -0.4984852
C           1.7061695    -1.6301047     0.6383782
H           1.9323924    -1.1138504     1.5667443
C           0.6212378    -2.5043995     0.5703263
H           0.0199659    -2.6809755     1.4577988
C           0.3041470    -3.1344913    -0.6327359
H          -0.5440208    -3.8110198    -0.6885300
C           1.0792254    -2.8844287    -1.7673261
H           0.8376373    -3.3692889    -2.7090555
C           2.1695521    -2.0184180    -1.7085765
H           2.7649909    -1.8201647    -2.5894719
C           5.8345472     1.1328198    -0.0483022
H           6.6929767     1.7833905     0.1000709
C           5.5682049     0.0946115     0.8886557
H           6.2125716    -0.0824406     1.7414450
C           4.4826879    -0.7019721     0.6824280
H           4.2357202    -1.5280919     1.3383059
N           3.6373608    -0.5343603    -0.3901262
C           3.8717437     0.4682042    -1.3932843
C           5.0261650     1.3070453    -1.1322050
H           5.2029534     2.0847130    -1.8668626
O           3.1286689     0.5793743    -2.3625789
22
044_C11H9NO_1-0-17-18 (-120,) energy =    -554.5636773
C           2.5101953    -1.4248465    -0.4887252
C           1.6504287    -1.5420316     0.6058621
H           1.8431169    -0.9628579     1.5044382
C           0.5449162    -2.3909887     0.5317859
H          -0.1200378    -2.4832341     1.3859495
C           0.2888951    -3.1041450    -0.6392316
H          -0.5751338    -3.7599799    -0.6994973
C           1.1413747    -2.9658010    -1.7376906
H           0.9412189    -3.5133948    -2.6543199
C           2.2521206    -2.1273658    -1.6686819
H           2.9120366    -2.0071875    -2.5196163
C           5.8184392     1.1362761    -0.0427841
H           6.6674875     1.7994786     0.1045625
C           5.6392493     0.0230582     0.8271851
H           6.3346039    -0.1901335     1.6301282
C           4.5641984    -0.7894880     0.6235553
H           4.3630825    -1.6618655     1.2350193
N           3.6646832    -0.5704693    -0.3912295
C           3.7873996     0.5275420    -1.3088072
C           4.9380178     1.3748132    -1.0569476
H           5.0481086     2.2169002    -1.7312216
O           2.9672269     0.6883349    -2.2052826
22
044_C11H9NO_1-0-17-18 (-105,) energy =    -554.5627494
C           2.5159608    -1.4204831    -0.4804669
C           1.5656371    -1.4218770     0.5412525
H           1.6960320    -0.7627088     1.3945749
C           0.4566687    -2.2649862     0.4514913
H          -0.2815687    -2.2699226     1.2484831
C           0.2931677    -3.0888195    -0.6626810
H          -0.5725441    -3.7413904    -0.7339828
C           1.2396588    -3.0685965    -1.6900081
H           1.1108630    -3.7030413    -2.5623580
C           2.3523343    -2.2334214    -1.6031522
H           3.0899695    -2.2016624    -2.3982024
C           5.8369380     1.1223302    -0.0518032
H           6.6951761     1.7760679     0.0848197
C           5.7344035    -0.0681378     0.7241926
H           6.4930363    -0.3440145     1.4467011
C           4.6470897    -0.8685945     0.5360915
H           4.4922358    -1.7920522     1.0832208
N           3.6700344    -0.5618816    -0.3774745
C           3.7030514     0.6205119    -1.1875509
C           4.8726022     1.4497198    -0.9596805
H           4.9253621     2.3529320    -1.5575402
O           2.8003912     0.8538502    -1.9824719
22
044_C11H9NO_1-0-17-18 (-90,) energy =    -554.5622881
C           2.4883313    -1.3954921    -0.4672652
C           1.4436453    -1.2937309     0.4517497
H           1.4910718    -0.5428990     1.2345626
C           0.3488229    -2.1519369     0.3467764
H          -0.4659198    -2.0740253     1.0611097
C           0.2998386    -3.1042987    -0.6730486
H          -0.5542386    -3.7710016    -0.7534103
C           1.3468066    -3.1970321    -1.5919938
H           1.3103410    -3.9338734    -2.3894241
C           2.4440684    -2.3412186    -1.4919308
H           3.2613025    -2.3961376    -2.2046492
C           5.8526435     1.0977789    -0.0883553
H           6.7315514     1.7290310     0.0200018
C           5.8178995    -0.1689075     0.5634704
H           6.6455848    -0.5220139     1.1667173
C           4.7047668    -0.9412594     0.4113595
H           4.5944315    -1.9171384     0.8714874
N           3.6363261    -0.5286332    -0.3437147
C           3.5991992     0.7293094    -1.0268639
C           4.7998648     1.5250896    -0.8437551
H           4.8041540     2.4846251    -1.3490328
O           2.6173849     1.0462620    -1.6877690
22
044_C11H9NO_1-0-17-18 (-75,) energy =    -554.5628032
C           2.4845043    -1.3718411    -0.4529031
C           1.3538975    -1.1748133     0.3417518
H           1.3266315    -0.3407970     1.0351933
C           0.2712223    -2.0446006     0.2229989
H          -0.6111591    -1.8908130     0.8377089
C           0.3203710    -3.1105581    -0.6788560
H          -0.5249659    -3.7873118    -0.7670437
C           1.4545925    -3.3033101    -1.4681443
H           1.4965307    -4.1281820    -2.1738613
C           2.5397224    -2.4318870    -1.3584657
H           3.4231856    -2.5630260    -1.9765398
C           5.8824974     1.0801273    -0.1091881
H           6.7764558     1.6935916    -0.0248720
C           5.8974829    -0.2502287     0.4007491
H           6.7768673    -0.6677591     0.8761382
C           4.7653839    -0.9999575     0.2801882
H           4.6906207    -2.0193074     0.6425813
N           3.6268352    -0.5041114    -0.3039683
C           3.5403617     0.8202966    -0.8444890
C           4.7633148     1.5891833    -0.7004453
H           4.7291507     2.5962461    -1.1012542
O           2.5023325     1.2112918    -1.3652574
22
044_C11H9NO_1-0-17-18 (-60,) energy =    -554.5637218
C           2.4772313    -1.3754926    -0.4480939
C           1.2824985    -1.0979129     0.2217826
H           1.1993942    -0.1976706     0.8189103
C           0.2081828    -1.9767119     0.0997058
H          -0.7212173    -1.7596343     0.6186031
C           0.3218823    -3.1309230    -0.6796891
H          -0.5193020    -3.8125814    -0.7693269
C           1.5162808    -3.4020562    -1.3468458
H           1.6106455    -4.2926263    -1.9618565
C           2.5943284    -2.5221786    -1.2370039
H           3.5201613    -2.7140672    -1.7718211
C           5.8794157     1.0808370    -0.1356280
H           6.7759196     1.6926136    -0.0690636
C           5.9364806    -0.2906100     0.2439636
H           6.8503292    -0.7424511     0.6105915
C           4.7998796    -1.0361686     0.1461280
H           4.7588403    -2.0827250     0.4258874
N           3.6129981    -0.5042538    -0.2961064
C           3.4814207     0.8712562    -0.6869613
C           4.7123736     1.6314758    -0.5776013
H           4.6411833     2.6714062    -0.8764880
O           2.4040314     1.3118046    -1.0712262
22
044_C11H9NO_1-0-17-18 (-45,) energy =    -554.5636735
C           2.4802765    -1.3789608    -0.4385942
C           1.2427781    -1.0376633     0.1186820
H           1.1238995    -0.0921090     0.6296034
C           0.1715085    -1.9217699     0.0023027
H          -0.7857902    -1.6543204     0.4408693
C           0.3181522    -3.1379094    -0.6681284
H          -0.5234575    -3.8193538    -0.7548199
C           1.5488893    -3.4668136    -1.2357228
H           1.6726472    -4.4020869    -1.7744975
C           2.6255720    -2.5862792    -1.1314484
H           3.5723173    -2.8258304    -1.6065672
C           5.8875714     1.0900701    -0.1376504
H           6.7842396     1.7015497    -0.0727700
C           5.9673475    -0.3065936     0.1257651
H           6.8985922    -0.7800548     0.4128655
C           4.8300100    -1.0500805     0.0312311
H           4.8113998    -2.1117592     0.2459641
N           3.6158629    -0.5031648    -0.3158546
C           3.4587881     0.9064635    -0.5519500
C           4.6931140     1.6630319    -0.4592766
H           4.5957823     2.7240223    -0.6607006
O           2.3625940     1.3864440    -0.8202065
22
044_C11H9NO_1-0-17-18 (-30,) energy =    -554.5617651
C           2.4786110    -1.3814002    -0.4346971
C           1.2062591    -0.9950375     0.0077695
H           1.0570317    -0.0142604     0.4325146
C           0.1399176    -1.8881575    -0.0972587
H          -0.8380921    -1.5808290     0.2626689
C           0.3122713    -3.1537621    -0.6575567
H          -0.5270501    -3.8386681    -0.7382254
C           1.5712838    -3.5231417    -1.1306154
H           1.7213115    -4.4936829    -1.5953902
C           2.6439650    -2.6389038    -1.0352488
H           3.6026877    -2.9194278    -1.4593919
C           5.9032316     1.0931465    -0.1464251
H           6.8024496     1.7004607    -0.0802848
C           5.9898376    -0.3186117     0.0096498
H           6.9296157    -0.8121534     0.2270009
C           4.8490216    -1.0549355    -0.0844324
H           4.8465886    -2.1249349     0.0762991
N           3.6160615    -0.4977829    -0.3537999
C           3.4536704     0.9300448    -0.4396072
C           4.6928391     1.6806510    -0.3580336
H           4.5793648     2.7535771    -0.4656539
O           2.3523247     1.4457628    -0.6022576
22
044_C11H9NO_1-0-17-18 (-15,) energy =    -554.5582257
C           2.4742043    -1.3793728    -0.4245617
C           1.1711335    -0.9627311    -0.1093283
H           0.9964761     0.0466404     0.2247479
C           0.1093249    -1.8634960    -0.2066301
H          -0.8863368    -1.5229533     0.0643142
C           0.3046718    -3.1696718    -0.6491589
H          -0.5308275    -3.8595797    -0.7260813
C           1.5890941    -3.5692093    -1.0170790
H           1.7652409    -4.5700907    -1.4015536
C           2.6578816    -2.6815293    -0.9256393
H           3.6257497    -3.0061307    -1.2896274
C           5.9231116     1.1006033    -0.1609865
H           6.8258171     1.7034946    -0.1050924
C           6.0090577    -0.3184966    -0.1101439
H           6.9550040    -0.8286111     0.0284272
C           4.8638260    -1.0468955    -0.1942054
H           4.8815167    -2.1216664    -0.0899089
N           3.6122605    -0.4851463    -0.3730427
C           3.4576464     0.9465848    -0.3071368
C           4.7020441     1.6929429    -0.2523404
H           4.5767932     2.7697648    -0.2674556
O           2.3587174     1.4922352    -0.3443700
22
044_C11H9NO_1-0-17-18 (0,) energy =    -554.5546107
C           2.4848712    -1.3800366    -0.4454500
C           1.1562114    -0.9263365    -0.3461473
H           0.9625679     0.1202755    -0.1877080
C           0.0900933    -1.8195876    -0.4605548
H          -0.9204339    -1.4274774    -0.3831467
C           0.2995508    -3.1793230    -0.6665156
H          -0.5364466    -3.8672107    -0.7541538
C           1.6118659    -3.6395978    -0.7510042
H           1.8152714    -4.6963672    -0.9014424
C           2.6868105    -2.7615822    -0.6383543
H           3.6726321    -3.2017585    -0.6948861
C           5.9225695     1.1570619    -0.1120918
H           6.8147947     1.7715766    -0.0258060
C           6.0314997    -0.2347993    -0.3780584
H           6.9923684    -0.7173758    -0.5132217
C           4.8985376    -0.9796913    -0.4748132
H           4.9752191    -2.0304115    -0.6946310
N           3.6193265    -0.4755339    -0.3202118
C           3.4551144     0.9415751    -0.0866708
C           4.6865194     1.7038627     0.0240688
H           4.5327673     2.7591022     0.2191512
O           2.3571508     1.4804518     0.0249084
22
044_C11H9NO_1-0-17-18 (15,) energy =    -554.5582259
C           2.4852623    -1.3710653    -0.4570793
C           1.1691311    -0.8920719    -0.5542847
H           0.9817243     0.1689346    -0.5456669
C           0.1091380    -1.7905995    -0.6857963
H          -0.8980649    -1.3942744    -0.7816639
C           0.3211894    -3.1672191    -0.6856275
H          -0.5128708    -3.8563024    -0.7828672
C           1.6217213    -3.6465555    -0.5320764
H           1.8129339    -4.7153409    -0.4903708
C           2.6890582    -2.7623363    -0.3994681
H           3.6737258    -3.1730790    -0.2088099
C           5.9292047     1.1072005    -0.1190863
H           6.8307398     1.7082074    -0.0323877
C           6.0037414    -0.2235640    -0.6162567
H           6.9374036    -0.6537139    -0.9590159
C           4.8604898    -0.9548388    -0.7019556
H           4.8669066    -1.9425988    -1.1384971
N           3.6239505    -0.4921867    -0.2883395
C           3.4742496     0.8863783     0.1057088
C           4.7184359     1.6264396     0.2194342
H           4.6006468     2.6428737     0.5777864
O           2.3824699     1.3802798     0.3719575
22
044_C11H9NO_1-0-17-18 (30,) energy =    -554.5617653
C           2.4883235    -1.3731276    -0.4513051
C           1.1954561    -0.8840995    -0.6821488
H           1.0278911     0.1782929    -0.7707412
C           0.1322491    -1.7787493    -0.8044561
H          -0.8627540    -1.3873324    -0.9975018
C           0.3293281    -3.1536639    -0.6774878
H          -0.5075961    -3.8400138    -0.7699516
C           1.6106552    -3.6361957    -0.4115953
H           1.7810166    -4.7013882    -0.2819811
C           2.6807540    -2.7529769    -0.2832158
H           3.6600470    -3.1395964    -0.0200204
C           5.9032959     1.1115509    -0.1368153
H           6.8000486     1.7210877    -0.0585873
C           5.9745266    -0.1798203    -0.7301934
H           6.8985744    -0.5687361    -1.1411336
C           4.8372042    -0.9233436    -0.8090651
H           4.8210113    -1.8898047    -1.2953269
N           3.6237255    -0.4940005    -0.3128736
C           3.4728397     0.8335525     0.2232924
C           4.7091665     1.5878647     0.3128546
H           4.6069703     2.5721356     0.7559940
O           2.3846656     1.2583481     0.5985175
22
044_C11H9NO_1-0-17-18 (45,) energy =    -554.5636735
C           2.4922218    -1.3750238    -0.4438529
C           1.2277044    -0.8910909    -0.7977524
H           1.0863092     0.1653866    -0.9797229
C           0.1593050    -1.7797364    -0.9055447
H          -0.8193026    -1.3998213    -1.1853362
C           0.3357893    -3.1427434    -0.6584959
H          -0.5037432    -3.8269509    -0.7435598
C           1.5942130    -3.6181860    -0.2905289
H           1.7421263    -4.6735390    -0.0791582
C           2.6686974    -2.7366752    -0.1726595
H           3.6389503    -3.1016730     0.1511345
C           5.8922343     1.1042089    -0.1428747
H           6.7872773     1.7161519    -0.0618062
C           5.9489889    -0.1388833    -0.8341161
H           6.8599262    -0.4878778    -1.3055027
C           4.8142002    -0.8878658    -0.9148939
H           4.7777005    -1.8291782    -1.4498765
N           3.6243883    -0.4914678    -0.3482445
C           3.4887665     0.7715492     0.3254456
C           4.7207312     1.5332839     0.4065526
H           4.6410201     2.4767904     0.9348984
O           2.4120684     1.1306704     0.7899649
22
044_C11H9NO_1-0-17-18 (60,) energy =    -554.5637218
C           2.4876731    -1.3715270    -0.4370112
C           1.2591686    -0.9140110    -0.9214006
H           1.1475579     0.1264979    -1.2020928
C           0.1890948    -1.8006316    -1.0223099
H          -0.7664496    -1.4443349    -1.3966768
C           0.3401519    -3.1388860    -0.6496934
H          -0.4980040    -3.8251431    -0.7323396
C           1.5682013    -3.5894322    -0.1658367
H           1.6921410    -4.6261762     0.1342592
C           2.6426823    -2.7055545    -0.0531902
H           3.5956561    -3.0429384     0.3443450
C           5.8789261     1.1028916    -0.1492897
H           6.7732267     1.7163208    -0.0695807
C           5.9085975    -0.0807336    -0.9407116
H           6.7986982    -0.3839158    -1.4787621
C           4.7756321    -0.8340350    -1.0195873
H           4.7143451    -1.7414352    -1.6095826
N           3.6174107    -0.4819481    -0.3701443
C           3.5139553     0.7010589     0.4372599
C           4.7405731     1.4730698     0.5046499
H           4.6908121     2.3667893     1.1167280
O           2.4614438     0.9859015     0.9972628
22
044_C11H9NO_1-0-17-18 (75,) energy =    -554.5628030
C           2.4820355    -1.3818073    -0.4291407
C           1.3090396    -0.9653139    -1.0609490
H           1.2426773     0.0437581    -1.4540888
C           0.2351722    -1.8477276    -1.1652187
H          -0.6800321    -1.5244250    -1.6530657
C           0.3350265    -3.1420254    -0.6486393
H          -0.5037776    -3.8272550    -0.7336975
C           1.5114677    -3.5525938    -0.0208971
H           1.5930807    -4.5565822     0.3859876
C           2.5884013    -2.6715217     0.0925135
H           3.5049180    -2.9742528     0.5906122
C           5.8563128     1.1114604    -0.1585293
H           6.7443911     1.7353968    -0.0904170
C           5.8436257     0.0090968    -1.0611054
H           6.6959552    -0.2234390    -1.6880925
C           4.7194403    -0.7593571    -1.1248957
H           4.6247925    -1.6143261    -1.7852449
N           3.6138310    -0.4909741    -0.3574718
C           3.5566765     0.5949730     0.5760429
C           4.7703262     1.3901867     0.6188486
H           4.7581535     2.2195541     1.3173939
O           2.5480214     0.7851915     1.2454085
22
044_C11H9NO_1-0-17-18 (90,) energy =    -554.5622881
C           2.5002934    -1.4028332    -0.4255366
C           1.4062913    -1.0351154    -1.2092917
H           1.4114944    -0.0762254    -1.7185020
C           0.3176194    -1.9003316    -1.3206628
H          -0.5355026    -1.6158112    -1.9300733
C           0.3239377    -3.1248227    -0.6498525
H          -0.5253181    -3.7967764    -0.7372875
C           1.4202360    -3.4839010     0.1365304
H           1.4267831    -4.4339537     0.6633245
C           2.5115936    -2.6224512     0.2517101
H           3.3670430    -2.8847231     0.8667513
C           5.8407984     1.1392214    -0.1846010
H           6.7124301     1.7878453    -0.1372263
C           5.7686041     0.1389075    -1.1968846
H           6.5608962     0.0055010    -1.9236170
C           4.6650400    -0.6607232    -1.2344917
H           4.5286400    -1.4457155    -1.9702952
N           3.6409544    -0.5225799    -0.3321447
C           3.6437044     0.4574974     0.7119262
C           4.8324608     1.2912638     0.7218699
H           4.8657839     2.0451585     1.5006896
O           2.7015573     0.5347441     1.4914182
22
044_C11H9NO_1-0-17-18 (105,) energy =    -554.5627494
C           2.5210805    -1.4332855    -0.4217327
C           1.5163972    -1.1302895    -1.3414174
H           1.6001863    -0.2350022    -1.9506101
C           0.4135417    -1.9774074    -1.4629189
H          -0.3669926    -1.7444629    -2.1817440
C           0.3106009    -3.1113804    -0.6564590
H          -0.5502709    -3.7677665    -0.7483762
C           1.3118140    -3.3982887     0.2746180
H           1.2306382    -4.2760529     0.9094780
C           2.4185470    -2.5595690     0.3962224
H           3.1985558    -2.7662046     1.1215542
C           5.8151952     1.1704592    -0.2036196
H           6.6650880     1.8482097    -0.1728627
C           5.6697065     0.2814410    -1.3074172
H           6.3874800     0.2582905    -2.1185390
C           4.5938146    -0.5555514    -1.3234615
H           4.4087465    -1.2636095    -2.1237772
N           3.6683499    -0.5666840    -0.3101877
C           3.7462652     0.3028763     0.8269884
C           4.9021334     1.1809629     0.8100747
H           4.9880418     1.8522149     1.6574534
O           2.8885258     0.2605322     1.7008494
22
044_C11H9NO_1-0-17-18 (120,) energy =    -554.5636773
C           2.5205356    -1.4374027    -0.4142339
C           1.5999578    -1.2203995    -1.4420726
H           1.7426731    -0.3862552    -2.1231479
C           0.4991730    -2.0678352    -1.5776465
H          -0.2129361    -1.8987977    -2.3805054
C           0.3085470    -3.1154966    -0.6767235
H          -0.5516038    -3.7714054    -0.7778533
C           1.2219744    -3.3137080     0.3619320
H           1.0736242    -4.1233887     1.0708374
C           2.3282859    -2.4776787     0.4985710
H           3.0354637    -2.6189033     1.3072720
C           5.8032747     1.1867095    -0.2140815
H           6.6439838     1.8760269    -0.1919785
C           5.5737973     0.3980208    -1.3775056
H           6.2228053     0.4568464    -2.2429646
C           4.5101964    -0.4540973    -1.3807117
H           4.2733340    -1.0949701    -2.2224699
N           3.6688494    -0.5766755    -0.3017364
C           3.8449026     0.1809999     0.9054154
C           4.9810874     1.0827263     0.8692732
H           5.1302428     1.6735935     1.7661969
O           3.0771442     0.0399975     1.8503724
22
044_C11H9NO_1-0-17-18 (135,) energy =    -554.5637397
C           2.5172513    -1.4299780    -0.4988142
C           2.3291099    -2.4071222     0.4844780
H           3.0632684    -2.5231845     1.2763561
C           1.2193770    -3.2507568     0.4285561
H           1.0840877    -4.0086680     1.1951006
C           0.2996989    -3.1296106    -0.6127743
H          -0.5617721    -3.7897048    -0.6609409
C           0.4972221    -2.1594228    -1.5978680
H          -0.2128336    -2.0598273    -2.4140927
C           1.5985633    -1.3069997    -1.5471739
H           1.7545352    -0.5607302    -2.3144525
C           5.8208208     1.1537146    -0.0588268
H           6.6772123     1.8082844     0.0836694
C           4.9636405     0.8671694     1.0410504
H           5.1279625     1.3013778     2.0199585
C           3.9009026     0.0398729     0.8365173
H           3.1911414    -0.2001568     1.6190234
N           3.6344031    -0.5295100    -0.3871927
C           4.4371075    -0.2513711    -1.5468139
C           5.5668597     0.6208611    -1.2877982
H           6.1964555     0.8226492    -2.1472216
O           4.1621429    -0.7389829    -2.6379904
22
044_C11H9NO_1-0-17-18 (150,) energy =    -554.5619298
C           2.5553632    -1.4724589    -0.5178253
C           2.2712516    -2.3545403     0.5345925
H           2.9575955    -2.4464217     1.3703363
C           1.1393013    -3.1668158     0.4897272
H           0.9441368    -3.8528757     1.3092625
C           0.2738921    -3.1071465    -0.6018668
H          -0.6065859    -3.7422699    -0.6396129
C           0.5554909    -2.2270792    -1.6472749
H          -0.1112987    -2.1677349    -2.5030827
C           1.6823360    -1.4066879    -1.6130425
H           1.8911124    -0.7306855    -2.4284758
C           5.8218350     1.1801897    -0.0414332
H           6.6616752     1.8534140     0.1111880
C           5.0259472     0.7777233     1.0674227
H           5.2117855     1.1506500     2.0676108
C           3.9844726    -0.0710038     0.8483998
H           3.3151421    -0.3678644     1.6447623
N           3.6819822    -0.5797504    -0.3972822
C           4.4031148    -0.1510312    -1.5665520
C           5.5174925     0.7368217    -1.2928076
H           6.0878379     1.0303248    -2.1669590
O           4.0997696    -0.5448964    -2.6884522
22
044_C11H9NO_1-0-17-18 (165,) energy =    -554.5581506
C           2.5777734    -1.5096903    -0.5265680
C           2.1950255    -2.2855605     0.5817261
H           2.8208953    -2.3431565     1.4646893
C           1.0466599    -3.0729149     0.5406649
H           0.7894488    -3.6757144     1.4072755
C           0.2433458    -3.0950697    -0.5982992
H          -0.6523359    -3.7087844    -0.6301784
C           0.6143436    -2.3212260    -1.6959280
H           0.0023443    -2.3202627    -2.5938451
C           1.7621610    -1.5285547    -1.6702612
H           2.0292690    -0.9353652    -2.5294625
C           5.8279681     1.1982821    -0.0405018
H           6.6552496     1.8856638     0.1163960
C           5.1121372     0.6771102     1.0726176
H           5.3401364     0.9767691     2.0887187
C           4.0851487    -0.1855718     0.8466180
H           3.4756226    -0.5421320     1.6628515
N           3.7186208    -0.6229718    -0.4128769
C           4.3479318    -0.0536855    -1.5782355
C           5.4507008     0.8484039    -1.2996580
H           5.9464985     1.2325894    -2.1839627
O           4.0054612    -0.3512216    -2.7190717
22
044_C11H9NO_1-0-17-18 (180,) energy =    -554.5546106
C           2.4966184    -1.4204935    -0.4920799
C           1.9906938    -2.0636700     0.6555459
H           2.4246809    -1.9281131     1.6363477
C           0.8937213    -2.9180374     0.5797452
H           0.5385404    -3.3923284     1.4905987
C           0.2602211    -3.1639043    -0.6365816
H          -0.5954209    -3.8306718    -0.6919047
C           0.7519591    -2.5336255    -1.7750017
H           0.2819819    -2.7030247    -2.7400599
C           1.8503215    -1.6746873    -1.7163215
H           2.2078966    -1.2014594    -2.6141579
C           5.8772364     1.1777688    -0.0548261
H           6.7345308     1.8298618     0.0899419
C           5.3035323     0.4895878     1.0483043
H           5.6965449     0.5918752     2.0530442
C           4.2314179    -0.3191379     0.8375341
H           3.7928897    -0.8405434     1.6705036
N           3.6437394    -0.5278513    -0.3975058
C           4.1917229     0.1500182    -1.5510292
C           5.3353079     1.0060592    -1.2885750
H           5.7239894     1.5009864    -2.1712989
O           3.7351426     0.0226406    -2.6839874
