27
341_C11H15N_0-6-19-17 (-165,) energy =    -482.9482913
C           1.7371563    -1.8075738    -0.0794182
H           2.2325157    -2.7746078    -0.2426471
C           0.2849947    -1.8668988    -0.5740929
H          -0.3274542    -1.1361336    -0.0319842
H          -0.1628686    -2.8550931    -0.4299504
H           1.7879228    -1.5818373     0.9898527
N           2.3392802    -0.7337848    -0.8796746
C           1.4705349    -0.3510819    -1.9954942
H           2.0407924    -0.2742923    -2.9302093
H           0.9979692     0.6304153    -1.8207965
C           0.4116850    -1.4579332    -2.0465197
H           0.7761584    -2.3021540    -2.6443795
H          -0.5290473    -1.1144656    -2.4874586
C           5.8500902     1.5351621    -0.1783669
H           6.7427325     2.1266225     0.0026264
C           4.8924353     1.9363188    -1.1037270
H           5.0181659     2.8571960    -1.6680508
C           3.7549863     1.1633970    -1.3146613
H           3.0192315     1.5185683    -2.0256288
C           3.5159118    -0.0388553    -0.6062143
C           4.5261423    -0.4826976     0.3008005
C           4.5214444    -1.8216767     1.0171853
H           3.7629955    -1.9027077     1.8034409
H           5.4923323    -1.9791214     1.4968302
H           4.3682837    -2.6571808     0.3261368
C           5.6477040     0.3317469     0.4954376
H           6.4072882    -0.0154180     1.1929508
27
341_C11H15N_0-6-19-17 (-150,) energy =    -482.9501605
C           1.6899856    -1.7045241     0.0032818
H           2.1417729    -2.7036168     0.0233975
C           0.2454604    -1.7785939    -0.5211676
H          -0.3635021    -0.9891534    -0.0642056
H          -0.2291766    -2.7386682    -0.2957932
H           1.7296708    -1.3017735     1.0225903
N           2.3799883    -0.8140927    -0.9470559
C           1.4876755    -0.4280780    -2.0407957
H           2.0351039    -0.3828792    -2.9900995
H           1.0343810     0.5653585    -1.8744688
C           0.4042872    -1.5085726    -2.0234052
H           0.7593915    -2.4084862    -2.5398670
H          -0.5211088    -1.1815676    -2.5073614
C           5.7788394     1.5720406    -0.1121759
H           6.6450450     2.1891226     0.1082059
C           4.8299989     1.9705756    -1.0487265
H           4.9398264     2.9130207    -1.5796927
C           3.7225409     1.1684241    -1.3103932
H           2.9910653     1.5156004    -2.0304114
C           3.5145924    -0.0585057    -0.6410733
C           4.5239988    -0.5052110     0.2612126
C           4.5491100    -1.8910177     0.8745519
H           3.7907235    -2.0512480     1.6488690
H           5.5239281    -2.0701836     1.3386328
H           4.4040526    -2.6652176     0.1120041
C           5.6114691     0.3376350     0.5145355
H           6.3725567    -0.0108972     1.2098388
27
341_C11H15N_0-6-19-17 (-135,) energy =    -482.9512255
C           1.6483004    -1.6009085     0.0220819
H           2.0565588    -2.6000916     0.2112713
C           0.2250025    -1.7008058    -0.5598239
H          -0.3891038    -0.8639015    -0.2061654
H          -0.2783107    -2.6278319    -0.2681217
H           1.6640986    -1.0529726     0.9734014
N           2.4320547    -0.8928408    -1.0153224
C           1.5595381    -0.5232356    -2.1318201
H           2.1206356    -0.5256239    -3.0734717
H           1.1190975     0.4828542    -2.0097846
C           0.4494474    -1.5726713    -2.0737208
H           0.8030558    -2.5216410    -2.4940516
H          -0.4474887    -1.2678315    -2.6216095
C           5.7413917     1.5745833    -0.0619232
H           6.5899399     2.2047805     0.1886673
C           4.7775493     1.9999469    -0.9717072
H           4.8580446     2.9751479    -1.4456724
C           3.6921119     1.1814452    -1.2769256
H           2.9485974     1.5433963    -1.9775804
C           3.5345944    -0.0879024    -0.6841782
C           4.5490509    -0.5494059     0.1994663
C           4.5721953    -1.9597404     0.7454415
H           3.8482279    -2.1286518     1.5517578
H           5.5634467    -2.1903133     1.1484229
H           4.3532294    -2.6883239    -0.0440857
C           5.6144931     0.3045485     0.5008345
H           6.3852853    -0.0575689     1.1782952
27
341_C11H15N_0-6-19-17 (-120,) energy =    -482.9510494
C           1.5923451    -1.4286500     0.1057610
H           2.0066920    -2.3482938     0.5320339
C           0.2231246    -1.6913165    -0.5628223
H          -0.4784071    -0.8864241    -0.3147606
H          -0.2273729    -2.6316609    -0.2305999
H           1.5088441    -0.6982078     0.9232703
N           2.4601711    -0.9198685    -0.9836568
C           1.6263193    -0.6025616    -2.1440996
H           2.2240486    -0.6414405    -3.0614546
H           1.1644696     0.4005895    -2.0872550
C           0.5301445    -1.6648228    -2.0699457
H           0.9229965    -2.6319496    -2.4039716
H          -0.3427338    -1.4177141    -2.6822787
C           5.7604813     1.5624217    -0.0362106
H           6.6118379     2.1903346     0.2114069
C           4.7486613     2.0310632    -0.8706132
H           4.7947263     3.0365812    -1.2814838
C           3.6611230     1.2142901    -1.1761024
H           2.8771230     1.6023790    -1.8171880
C           3.5609305    -0.0927392    -0.6658211
C           4.6076451    -0.5857349     0.1553524
C           4.6252702    -2.0136688     0.6464600
H           3.9937006    -2.1663372     1.5315438
H           5.6421710    -2.3126341     0.9205576
H           4.2626441    -2.6950422    -0.1313527
C           5.6774301     0.2614724     0.4606143
H           6.4799168    -0.1245386     1.0860555
27
341_C11H15N_0-6-19-17 (-105,) energy =    -482.9505893
C           1.4517308    -1.1358195     0.2481338
H           1.9243001    -1.6875721     1.0649947
C           0.2893496    -1.9131995    -0.4135294
H          -0.6763443    -1.5267629    -0.0731063
H           0.3220620    -2.9757759    -0.1548671
H           1.0927346    -0.1762090     0.6608123
N           2.4028898    -0.9062876    -0.8535684
C           1.5687286    -0.6132299    -2.0194096
H           2.1668582    -0.6438560    -2.9356283
H           1.0885948     0.3822153    -1.9603131
C           0.4934278    -1.7052059    -1.9398272
H           0.8636167    -2.6248770    -2.4033140
H          -0.4266732    -1.4166052    -2.4573505
C           5.7881848     1.5113390    -0.0454827
H           6.6660833     2.1167842     0.1630632
C           4.7359933     2.0246372    -0.8005353
H           4.7779545     3.0407910    -1.1845388
C           3.6166871     1.2341739    -1.0604585
H           2.8005757     1.6474417    -1.6442193
C           3.5323976    -0.0841824    -0.5851453
C           4.6060226    -0.6156121     0.1700077
C           4.5883168    -2.0425617     0.6613319
H           4.0619517    -2.1448219     1.6204510
H           5.6068016    -2.4144461     0.8138569
H           4.0777477    -2.6914632    -0.0574650
C           5.7117739     0.2009836     0.4278027
H           6.5408703    -0.2115998     0.9991204
27
341_C11H15N_0-6-19-17 (-90,) energy =    -482.9493533
C           1.5502303    -1.2741393     0.3942757
H           1.9984756    -1.6928244     1.3010801
C           0.4294965    -2.1577204    -0.1976431
H          -0.5571007    -1.7775227     0.0849947
H           0.4997798    -3.1849391     0.1723196
H           1.1620446    -0.2711805     0.6494918
N           2.5456820    -1.1950122    -0.6878563
C           1.7547449    -1.0428515    -1.9119593
H           2.3837671    -1.1966430    -2.7944898
H           1.2866195    -0.0442970    -2.0002249
C           0.6603690    -2.1068091    -1.7352047
H           1.0181665    -3.0751213    -2.0982430
H          -0.2474002    -1.8569868    -2.2931839
C           5.8204390     1.4004987     0.0255515
H           6.6708531     2.0508489     0.2125060
C           4.6855941     1.8891829    -0.6195574
H           4.6361864     2.9283574    -0.9347960
C           3.6042687     1.0401907    -0.8547417
H           2.7209841     1.4284698    -1.3529701
C           3.6457275    -0.3072381    -0.4684957
C           4.7913697    -0.8068029     0.1907510
C           4.8675047    -2.2488801     0.6291537
H           4.3400943    -2.4134836     1.5790404
H           5.9068212    -2.5594166     0.7781209
H           4.3980185    -2.9045290    -0.1099476
C           5.8617151     0.0641842     0.4242122
H           6.7503466    -0.3203622     0.9204012
27
341_C11H15N_0-6-19-17 (-75,) energy =    -482.9481561
C           1.4547187    -1.1308813     0.3721927
H           1.8053500    -1.4389565     1.3631392
C           0.3615571    -2.0546872    -0.2070451
H          -0.6352054    -1.6333774    -0.0431774
H           0.3825746    -3.0367891     0.2746204
H           1.0779913    -0.0950691     0.4631770
N           2.5460356    -1.2226573    -0.6099388
C           1.8810704    -1.1997411    -1.9176542
H           2.5784254    -1.5046447    -2.7047590
H           1.4941795    -0.1979704    -2.1834616
C           0.7103952    -2.1768375    -1.7189584
H           1.0291801    -3.1970317    -1.9534393
H          -0.1356763    -1.9366610    -2.3703600
C           5.8055578     1.4096445     0.0436499
H           6.6508470     2.0708145     0.2158559
C           4.6194369     1.9084206    -0.4938410
H           4.5269155     2.9631121    -0.7402160
C           3.5461368     1.0447950    -0.7108688
H           2.6196227     1.4337538    -1.1248499
C           3.6453253    -0.3198512    -0.4079052
C           4.8389799    -0.8285608     0.1442035
C           4.9664062    -2.2902577     0.5003873
H           4.3773937    -2.5401739     1.3924736
H           6.0089130    -2.5521130     0.7088904
H           4.5933911    -2.9284277    -0.3058272
C           5.9049554     0.0542473     0.3583685
H           6.8317786    -0.3331437     0.7759895
27
341_C11H15N_0-6-19-17 (-60,) energy =    -482.9478042
C           1.3390139    -1.0250287     0.3834324
H           1.5856945    -1.1720580     1.4402840
C           0.3286069    -2.0522348    -0.1610645
H          -0.6997250    -1.6875408    -0.0751823
H           0.3933868    -2.9871301     0.4036828
H           0.9355468    -0.0000292     0.2772226
N           2.5237399    -1.2474788    -0.4532477
C           2.0104294    -1.3947548    -1.8208152
H           2.7724721    -1.8419069    -2.4681838
H           1.7293413    -0.4213267    -2.2656495
C           0.7616465    -2.2808178    -1.6392691
H           1.0087814    -3.3333666    -1.8070037
H          -0.0238363    -2.0118955    -2.3523802
C           5.7985670     1.3932996     0.0713065
H           6.6475085     2.0576631     0.2103759
C           4.5609630     1.9046718    -0.3183442
H           4.4343754     2.9708793    -0.4878985
C           3.4833323     1.0363229    -0.4906914
H           2.5170220     1.4303769    -0.7956374
C           3.6253652    -0.3407242    -0.2754461
C           4.8736002    -0.8641206     0.1158568
C           5.0537099    -2.3456085     0.3472560
H           4.3386715    -2.7262633     1.0839748
H           6.0663255    -2.5635132     0.7022126
H           4.8850911    -2.9194836    -0.5713851
C           5.9452512     0.0222360     0.2836719
H           6.9119755    -0.3730840     0.5878219
27
341_C11H15N_0-6-19-17 (-45,) energy =    -482.9487924
C           1.1561775    -0.5724111     0.5161928
H           1.3116461    -0.5585325     1.6008913
C           0.2447298    -1.7082568     0.0417023
H          -0.8185169    -1.4888671     0.1822143
H           0.4811045    -2.6267905     0.5911040
H           0.7147293     0.4024542     0.2326796
N           2.4086810    -0.8740355    -0.1706728
C           2.1519040    -1.5226019    -1.4669082
H           2.7619042    -2.4302455    -1.5740160
H           2.4041457    -0.8624058    -2.3107623
C           0.6398722    -1.8474052    -1.4405330
H           0.4173040    -2.8366363    -1.8524585
H           0.0896840    -1.1126320    -2.0399153
C           5.8111204     1.6011570     0.2567109
H           6.6917468     2.2281040     0.3685877
C           4.5521952     2.1755428     0.0815129
H           4.4410467     3.2563178     0.0438954
C           3.4341618     1.3561872    -0.0631641
H           2.4553384     1.8029270    -0.2147066
C           3.5459569    -0.0426178    -0.0080627
C           4.8207794    -0.6287162     0.1654952
C           4.9825133    -2.1274034     0.2282913
H           4.1347995    -2.5852358     0.7479441
H           5.9080665    -2.4021132     0.7447793
H           5.0234786    -2.5769346    -0.7734752
C           5.9328278     0.2122324     0.2933003
H           6.9134813    -0.2364277     0.4383294
27
341_C11H15N_0-6-19-17 (-30,) energy =    -482.9504225
C           1.0429797    -0.7909910     0.1283806
H           1.0841821    -0.6043299     1.2075460
C           0.1941322    -2.0045118    -0.2571132
H          -0.8792669    -1.7905197    -0.2510955
H           0.3838360    -2.8309480     0.4378750
H           0.6232063     0.1139394    -0.3492044
N           2.3663838    -1.1530187    -0.3755199
C           2.2493028    -2.0462317    -1.5452385
H           2.8192632    -2.9715424    -1.3928744
H           2.6400968    -1.5692561    -2.4552600
C           0.7377471    -2.3395745    -1.6565611
H           0.5353521    -3.3699204    -1.9651967
H           0.2783866    -1.6762710    -2.3990255
C           5.6333502     1.5130224    -0.0310646
H           6.4783281     2.1903335     0.0573771
C           4.3333875     2.0074781    -0.1231455
H           4.1495819     3.0790425    -0.1174935
C           3.2611152     1.1256496    -0.2411740
H           2.2550693     1.5233076    -0.3298923
C           3.4571990    -0.2671464    -0.2483116
C           4.7755277    -0.7737452    -0.1316036
C           5.0441318    -2.2571066    -0.0530479
H           4.2661478    -2.7592667     0.5324097
H           6.0133830    -2.4503630     0.4180291
H           5.0630626    -2.7351522    -1.0417383
C           5.8365637     0.1331260    -0.0357732
H           6.8467571    -0.2596280     0.0615608
27
341_C11H15N_0-6-19-17 (-15,) energy =    -482.9512530
C           1.0010025    -0.6968791     0.0504973
H           0.9609507    -0.4080551     1.1070011
C           0.1239618    -1.9002001    -0.2963361
H          -0.9335974    -1.6365698    -0.3957975
H           0.2150076    -2.6711328     0.4778528
H           0.6739237     0.1743125    -0.5456420
N           2.3468440    -1.1532386    -0.3016697
C           2.2675943    -2.1588454    -1.3856527
H           2.7500037    -3.0965709    -1.0873247
H           2.7729836    -1.8045216    -2.2942337
C           0.7578877    -2.3743698    -1.6132239
H           0.5199467    -3.4127348    -1.8641579
H           0.4049886    -1.7448669    -2.4388662
C           5.6136709     1.5282009    -0.0147178
H           6.4562823     2.2100871     0.0574248
C           4.3053946     2.0040211     0.0136349
H           4.1077499     3.0693906     0.1031050
C           3.2357258     1.1163699    -0.0848067
H           2.2264155     1.5121508    -0.0753672
C           3.4401767    -0.2718157    -0.2074544
C           4.7727770    -0.7640774    -0.1882712
C           5.0826469    -2.2430240    -0.1643703
H           4.4145846    -2.7697764     0.5270726
H           6.1128495    -2.4094505     0.1661265
H           4.9759599    -2.7227783    -1.1454044
C           5.8256847     0.1527007    -0.1091153
H           6.8430774    -0.2330771    -0.0921722
27
341_C11H15N_0-6-19-17 (0,) energy =    -482.9506870
C           0.9780976    -0.6519481    -0.0562822
H           0.8526548    -0.2723294     0.9640723
C           0.0802465    -1.8448066    -0.3768714
H          -0.9532714    -1.5492732    -0.5822601
H           0.0757756    -2.5516048     0.4610961
H           0.7551375     0.1777683    -0.7509353
N           2.3336061    -1.1821707    -0.2416246
C           2.2891045    -2.2525026    -1.2717136
H           2.7237808    -3.1797190    -0.8847419
H           2.8614665    -1.9660495    -2.1633937
C           0.7941203    -2.4468366    -1.5951474
H           0.5428472    -3.4966222    -1.7754374
H           0.5239911    -1.8829941    -2.4958950
C           5.5908888     1.5274697    -0.0158417
H           6.4283884     2.2172258     0.0368479
C           4.2813042     1.9757303     0.1247154
H           4.0741237     3.0298853     0.2915519
C           3.2192050     1.0768174     0.0475817
H           2.2108053     1.4592938     0.1497260
C           3.4278404    -0.2983886    -0.1846602
C           4.7693977    -0.7700608    -0.2498811
C           5.1235201    -2.2416321    -0.2734702
H           4.5350685    -2.7985787     0.4650416
H           6.1809347    -2.3741842    -0.0237725
H           4.9596381    -2.7190145    -1.2466565
C           5.8108853     0.1610057    -0.1882810
H           6.8321195    -0.2103736    -0.2452465
27
341_C11H15N_0-6-19-17 (15,) energy =    -482.9512527
C           1.0334977     0.0928185    -1.0100468
H           0.6884194     0.5737309    -0.0767110
C           0.0864807    -1.0540900    -1.3637054
H           0.2172779    -1.3429709    -2.4132089
H          -0.9655417    -0.7964152    -1.2067795
H           1.0954063     0.8709206    -1.7794176
N           2.3260877    -0.5779694    -0.8591745
C           2.1163073    -1.9795770    -0.4297507
H           2.5526985    -2.1609176     0.5618068
H           2.5888481    -2.6792827    -1.1284059
C           0.5856891    -2.1657005    -0.4277448
H           0.1854572    -2.0049818     0.5804660
H           0.2891789    -3.1703839    -0.7447289
C           5.7036980     1.6358166     0.4187484
H           6.5744448     2.1971196     0.7457053
C           4.4215626     2.1607780     0.5582087
H           4.2730380     3.1417432     1.0028991
C           3.3146813     1.4255662     0.1386415
H           2.3255232     1.8493560     0.2708478
C           3.4556123     0.1485483    -0.4387010
C           4.7652802    -0.3687505    -0.6265574
C           5.0195589    -1.6586893    -1.3718741
H           4.8184310    -2.5531776    -0.7688752
H           6.0653347    -1.7126582    -1.6908096
H           4.3879758    -1.7226806    -2.2655792
C           5.8548839     0.3833486    -0.1765162
H           6.8546626    -0.0191665    -0.3269197
27
341_C11H15N_0-6-19-17 (30,) energy =    -482.9504229
C           1.0943975     0.0420312    -1.1274795
H           0.6678637     0.6147777    -0.2829572
C           0.1762770    -1.1387941    -1.4507489
H           0.3940108    -1.5190340    -2.4557364
H          -0.8851774    -0.8755095    -1.4058912
H           1.2299846     0.7389425    -1.9623855
N           2.3591760    -0.6151780    -0.8037463
C           2.1167652    -1.9622941    -0.2503502
H           2.4479723    -2.0322413     0.7954874
H           2.6654468    -2.7254399    -0.8167619
C           0.5920822    -2.1648188    -0.3827623
H           0.0964788    -1.9299755     0.5666972
H           0.3301969    -3.1945343    -0.6453095
C           5.7317846     1.6301187     0.4145119
H           6.6036512     2.1999146     0.7239395
C           4.4460995     2.1024766     0.6728708
H           4.2997986     3.0438059     1.1968538
C           3.3385422     1.3571609     0.2739179
H           2.3426511     1.7270071     0.4965042
C           3.4861402     0.1367688    -0.4096189
C           4.7917165    -0.3351288    -0.6943032
C           5.0154251    -1.5961169    -1.4933875
H           4.9361867    -2.5037278    -0.8799210
H           6.0132389    -1.5966568    -1.9440166
H           4.2720141    -1.6825369    -2.2934399
C           5.8871002     0.4215581    -0.2642332
H           6.8879952     0.0599493    -0.4915248
27
341_C11H15N_0-6-19-17 (45,) energy =    -482.9487940
C           1.1831259    -0.0084489    -1.2677818
H           0.7027749     0.6558269    -0.5236089
C           0.2759451    -1.2106176    -1.5466665
H           0.5657903    -1.6812764    -2.4931306
H          -0.7831182    -0.9405021    -1.6083064
H           1.3972195     0.5957580    -2.1565524
N           2.4033878    -0.6486321    -0.7855321
C           2.0886061    -1.8912765    -0.0617336
H           2.2684446    -1.7907957     1.0196524
H           2.7195299    -2.7171357    -0.4181305
C           0.5913289    -2.1413149    -0.3602133
H          -0.0151393    -1.8537080     0.5065237
H           0.3773734    -3.1933514    -0.5728392
C           5.7633873     1.6269249     0.4060690
H           6.6334314     2.2050997     0.7057806
C           4.4835812     2.0238124     0.7933514
H           4.3448955     2.9094644     1.4083499
C           3.3792883     1.2688697     0.4021872
H           2.3833121     1.5693417     0.7158695
C           3.5274351     0.1265763    -0.4010355
C           4.8233013    -0.2813924    -0.7921317
C           5.0237826    -1.5043105    -1.6526249
H           5.0199272    -2.4280827    -1.0577264
H           5.9827633    -1.4621002    -2.1793582
H           4.2171789    -1.5955997    -2.3869784
C           5.9201808     0.4825536    -0.3756929
H           6.9176785     0.1770210    -0.6849734
27
341_C11H15N_0-6-19-17 (60,) energy =    -482.9478042
C           1.4102363    -0.1338323    -1.4257296
H           1.0273118     0.7209085    -0.8363288
C           0.3361565    -1.2333889    -1.5262066
H           0.4170505    -1.7590200    -2.4824170
H          -0.6733071    -0.8147523    -1.4664737
H           1.7295158     0.2556051    -2.3982481
N           2.5244656    -0.8168732    -0.7584640
C           1.9084346    -1.6000381     0.3197309
H           1.6195820    -0.9666335     1.1799072
H           2.6093297    -2.3553640     0.6911134
C           0.6546723    -2.2000736    -0.3475848
H          -0.1735563    -2.2815470     0.3632129
H           0.8626567    -3.2062380    -0.7236502
C           5.8969864     1.5286710     0.2892589
H           6.7709990     2.1207607     0.5479993
C           4.6479927     1.8476555     0.8214357
H           4.5373094     2.6892764     1.5004013
C           3.5381553     1.0765935     0.4767657
H           2.5627450     1.3207493     0.8902678
C           3.6594109    -0.0109990    -0.3979439
C           4.9188354    -0.3401827    -0.9370768
C           5.0763010    -1.5119862    -1.8766970
H           4.8232828    -2.4585161    -1.3850679
H           6.1067090    -1.5833078    -2.2400459
H           4.4092405    -1.4257016    -2.7407315
C           6.0228258     0.4444212    -0.5796831
H           6.9985603     0.1987016    -0.9930908
27
341_C11H15N_0-6-19-17 (75,) energy =    -482.9481561
C           1.4847232    -0.5512638    -1.4347685
H           1.0891999     0.3706612    -0.9692301
C           0.3834531    -1.6302446    -1.5176701
H           0.4541610    -2.1914554    -2.4541582
H          -0.6124338    -1.1774899    -1.4842816
H           1.8966248    -0.2732398    -2.4109198
N           2.5221326    -1.1745309    -0.5985145
C           1.7858302    -1.8611432     0.4688510
H           1.3614434    -1.1621669     1.2139713
H           2.4458038    -2.5529007     1.0024348
C           0.6511883    -2.5600080    -0.2985111
H          -0.2349321    -2.7046915     0.3273499
H           0.9803746    -3.5465165    -0.6388596
C           5.7492735     1.3556505     0.4807514
H           6.5869998     1.9951339     0.7464579
C           4.5237665     1.4928885     1.1318681
H           4.3925232     2.2437621     1.9068511
C           3.4610322     0.6613522     0.7796580
H           2.5041785     0.7713203     1.2830842
C           3.6091790    -0.3186872    -0.2110159
C           4.8431795    -0.4563887    -0.8793136
C           5.0246850    -1.4890533    -1.9657412
H           4.6225620    -2.4595272    -1.6610202
H           6.0830634    -1.6059219    -2.2207553
H           4.4922710    -1.2061496    -2.8831963
C           5.8979941     0.3897439    -0.5147010
H           6.8553615     0.2831568    -1.0202268
27
341_C11H15N_0-6-19-17 (90,) energy =    -482.9493532
C           1.5818938    -0.6546542    -1.5280811
H           1.1874334     0.3308999    -1.2202038
C           0.4481565    -1.7032361    -1.5796760
H           0.5592483    -2.3629493    -2.4453709
H          -0.5286419    -1.2170617    -1.6651448
H           2.0903590    -0.5189900    -2.4880827
N           2.5118289    -1.1893816    -0.5193245
C           1.6492147    -1.7189854     0.5401515
H           1.1535734    -0.9241769     1.1289659
H           2.2303401    -2.3356854     1.2330983
C           0.5920791    -2.5025749    -0.2529647
H          -0.3509410    -2.5890247     0.2956935
H           0.9527467    -3.5154465    -0.4566236
C           5.7612756     1.3373889     0.4933607
H           6.6057031     1.9747114     0.7421034
C           4.5805367     1.4092731     1.2306428
H           4.4894086     2.1097722     2.0568944
C           3.5073856     0.5818591     0.9003363
H           2.5882901     0.6464462     1.4750440
C           3.6019427    -0.3383950    -0.1535167
C           4.7944571    -0.4117932    -0.9079344
C           4.9283191    -1.3833307    -2.0550011
H           4.4309777    -2.3294056    -1.8223147
H           5.9812465    -1.5764279    -2.2849233
H           4.4613886    -0.9969446    -2.9716457
C           5.8560571     0.4332660    -0.5649128
H           6.7801399     0.3705053    -1.1357762
27
341_C11H15N_0-6-19-17 (105,) energy =    -482.9505898
C           1.4883852    -0.6381810    -1.3812639
H           1.1258197     0.3934507    -1.2254377
C           0.3127716    -1.6424539    -1.3310353
H           0.3956029    -2.3922148    -2.1235465
H          -0.6421194    -1.1266304    -1.4719685
H           2.0254537    -0.6568471    -2.3332026
N           2.3643126    -1.0562594    -0.2726354
C           1.4532623    -1.4407603     0.8056591
H           0.9489985    -0.5706966     1.2679286
H           1.9955717    -1.9723983     1.5939879
C           0.4163083    -2.3021203     0.0721173
H          -0.5417571    -2.3327140     0.6002082
H           0.7825810    -3.3295747    -0.0161909
C           5.7190451     1.3829574     0.5964291
H           6.5895014     1.9970652     0.8107746
C           4.6088602     1.4084279     1.4375485
H           4.5978377     2.0491334     2.3157035
C           3.4999317     0.6132008     1.1491392
H           2.6384843     0.6470493     1.8081914
C           3.4832507    -0.2301700     0.0269165
C           4.6154524    -0.2712074    -0.8226104
C           4.6691653    -1.1972624    -2.0131962
H           4.1337487    -2.1284150    -1.8019003
H           5.7054167    -1.4354878    -2.2745969
H           4.2067565    -0.7530759    -2.9055553
C           5.7099309     0.5448893    -0.5191293
H           6.5836368     0.5049572    -1.1664888
27
341_C11H15N_0-6-19-17 (120,) energy =    -482.9510493
C           1.6292835    -0.9645406    -1.4123949
H           1.5737829     0.0944095    -1.7028435
C           0.2306537    -1.5382185    -1.0877431
H          -0.1716822    -2.1402735    -1.9082442
H          -0.4777762    -0.7226602    -0.9019196
H           2.0952079    -1.5057627    -2.2425438
N           2.4148278    -1.1403104    -0.1670348
C           1.5039885    -1.5021466     0.9202045
H           1.0170320    -0.6273685     1.3897437
H           2.0466085    -2.0409715     1.7047893
C           0.4459394    -2.3422644     0.2058907
H          -0.4689296    -2.4629008     0.7944408
H           0.8463434    -3.3378805    -0.0169730
C           5.6905967     1.4307066     0.6146802
H           6.5362181     2.0852390     0.8067979
C           4.6171631     1.3752663     1.5002764
H           4.6086664     1.9926292     2.3951461
C           3.5380689     0.5327492     1.2377521
H           2.7059316     0.5136793     1.9330489
C           3.5075033    -0.2824282     0.0917648
C           4.6156628    -0.2548404    -0.7938026
C           4.7051266    -1.1825967    -1.9819689
H           4.3175359    -2.1755462    -1.7278184
H           5.7449841    -1.2907239    -2.3069270
H           4.1320165    -0.8222718    -2.8464137
C           5.6761188     0.6131622    -0.5156344
H           6.5257017     0.6253083    -1.1955073
27
341_C11H15N_0-6-19-17 (135,) energy =    -482.9512255
C           1.6851327    -1.1545709    -1.4326874
H           1.7415655    -0.1760285    -1.9274215
C           0.2331458    -1.5449528    -1.0954592
H          -0.2240953    -2.1580151    -1.8783233
H          -0.3832436    -0.6459727    -0.9750122
H           2.1334334    -1.8912486    -2.1088281
N           2.3840363    -1.1345289    -0.1277134
C           1.4357018    -1.4281016     0.9488076
H           0.9736858    -0.5153529     1.3665806
H           1.9392610    -1.9489952     1.7713910
C           0.3626945    -2.2665461     0.2540625
H          -0.5740697    -2.3035207     0.8186051
H           0.7185115    -3.2937539     0.1108910
C           5.6698266     1.4268352     0.6415479
H           6.5127692     2.0848802     0.8323456
C           4.6410736     1.2936161     1.5697423
H           4.6640846     1.8507784     2.5031119
C           3.5640867     0.4498714     1.3061487
H           2.7695368     0.3760961     2.0396266
C           3.4800611    -0.2881259     0.1079508
C           4.5588318    -0.1998684    -0.8147601
C           4.6563808    -1.0829275    -2.0388335
H           4.4122421    -2.1227624    -1.7913036
H           5.6763651    -1.0636943    -2.4355686
H           3.9872833    -0.7781292    -2.8525990
C           5.6145857     0.6716182    -0.5299454
H           6.4349544     0.7324033    -1.2423373
27
341_C11H15N_0-6-19-17 (150,) energy =    -482.9501605
C           1.7286532    -1.2521531    -1.4706815
H           1.8172883    -0.3582774    -2.0998863
C           0.2581719    -1.5893496    -1.1687396
H          -0.1734581    -2.2665546    -1.9123153
H          -0.3454959    -0.6737200    -1.1601387
H           2.2102701    -2.0814974    -2.0025996
N           2.3338612    -1.0309996    -0.1451899
C           1.3666509    -1.2982635     0.9199765
H           0.8948422    -0.3718086     1.2929810
H           1.8547289    -1.7833521     1.7740068
C           0.3187736    -2.1852002     0.2441071
H          -0.6432037    -2.1684734     0.7654731
H           0.6688968    -3.2238510     0.2081191
C           5.7042154     1.3969436     0.6845760
H           6.5633381     2.0273878     0.8946172
C           4.6896462     1.2264876     1.6215101
H           4.7394814     1.7248434     2.5865744
C           3.5928212     0.4203853     1.3290204
H           2.8096068     0.3235045     2.0714511
C           3.4617975    -0.2398852     0.0866579
C           4.5361761    -0.1289511    -0.8439203
C           4.6390548    -0.9546838    -2.1107516
H           4.4717434    -2.0185817    -1.9057273
H           5.6447586    -0.8587848    -2.5315929
H           3.9333998    -0.6599146    -2.8953225
C           5.6113583     0.7068217    -0.5235856
H           6.4226814     0.7888338    -1.2441445
27
341_C11H15N_0-6-19-17 (165,) energy =    -482.9482911
C           1.7737701    -1.3753233    -1.4596950
H           1.8817173    -0.5988417    -2.2229477
C           0.2964941    -1.6879294    -1.1806729
H          -0.1070545    -2.4350302    -1.8712255
H          -0.3062054    -0.7768860    -1.2789933
H           2.2904231    -2.2752853    -1.8203868
N           2.2895062    -0.9216944    -0.1622823
C           1.3413266    -1.2044207     0.9176183
H           0.8504806    -0.2834682     1.2755125
H           1.8491442    -1.6566242     1.7792720
C           0.3164413    -2.1502002     0.2815072
H          -0.6609334    -2.0947156     0.7703952
H           0.6679145    -3.1870953     0.3466184
C           5.7685734     1.3266684     0.7364048
H           6.6522922     1.9129446     0.9702743
C           4.7426828     1.1653414     1.6614346
H           4.8051194     1.6259929     2.6443904
C           3.6178459     0.4137048     1.3365159
H           2.8281747     0.3291227     2.0728751
C           3.4600328    -0.2024848     0.0716622
C           4.5392062    -0.0883596    -0.8573191
C           4.6227696    -0.8221468    -2.1842233
H           4.4598513    -1.8989599    -2.0684861
H           5.6246364    -0.6952142    -2.6057044
H           3.9141791    -0.4622662    -2.9379274
C           5.6458900     0.6891748    -0.4972167
H           6.4585422     0.7722987    -1.2160529
27
341_C11H15N_0-6-19-17 (180,) energy =    -482.9471771
C           1.7842600    -1.9205765    -0.2112015
H           2.3154544    -2.8113661    -0.5834200
C           0.3133438    -1.9706078    -0.6375857
H          -0.2886996    -1.3350150     0.0229888
H          -0.0967653    -2.9846711    -0.5996801
H           1.8868318    -1.8976227     0.8745477
N           2.2794677    -0.6846571    -0.8253942
C           1.4109711    -0.2685352    -1.9344946
H           1.9813407    -0.1518974    -2.8659667
H           0.9409605     0.7039573    -1.7192293
C           0.3580176    -1.3804390    -2.0513610
H           0.6935780    -2.1428266    -2.7647832
H          -0.6081587    -1.0022456    -2.3987052
C           5.8960889     1.4649828    -0.2627893
H           6.8186658     2.0215685    -0.1274278
C           4.9173071     1.8903997    -1.1535720
H           5.0522355     2.7988497    -1.7356563
C           3.7469621     1.1555894    -1.3110723
H           3.0025650     1.5296888    -2.0020586
C           3.4915989    -0.0364892    -0.5881155
C           4.4996411    -0.4773764     0.3252179
C           4.4284937    -1.7276624     1.1860237
H           3.6935509    -1.6466752     1.9962130
H           5.4003478    -1.8941351     1.6606429
H           4.1942028    -2.6314415     0.6169773
C           5.6620816     0.2927282     0.4532278
H           6.4214118    -0.0572790     1.1494574
