20
433_C10H9N_4-6-15-16 (-165,) energy =    -441.2277888
C           5.8923194     1.1532248     0.0753257
H           6.7406881     1.8204404     0.1989730
C           6.0315431    -0.2181292     0.3049855
H           6.9936609    -0.6248648     0.6057635
C           4.9475944    -1.0751527     0.1408692
H           5.0781199    -2.1416639     0.2983950
C           3.6868249    -0.5854449    -0.2511254
C           3.5598548     0.7998416    -0.4658314
H           2.5934655     1.2250456    -0.7262173
C           4.6492928     1.6553750    -0.3115476
H           4.5208195     2.7209986    -0.4833606
C           1.0671967    -3.2195474    -0.3474601
H           0.6035404    -4.1741228    -0.1389492
C           2.3588942    -2.7945899     0.0578876
H           3.0591968    -3.3590688     0.6581211
C           2.5554816    -1.4992637    -0.4055652
N           1.3942301    -1.1420590    -1.0673536
H           1.2787399    -0.2922492    -1.5972692
C           0.4963131    -2.1797208    -1.0518214
H          -0.4641497    -2.0929654    -1.5391049
20
433_C10H9N_4-6-15-16 (-150,) energy =    -441.2278864
C           5.8911852     1.1524044     0.0590425
H           6.7426510     1.8190901     0.1637927
C           6.0556802    -0.2284706     0.1951598
H           7.0400514    -0.6415054     0.4000241
C           4.9678161    -1.0857370     0.0513589
H           5.1090027    -2.1601513     0.1260653
C           3.6813629    -0.5813266    -0.2136510
C           3.5290811     0.8119197    -0.3404246
H           2.5400947     1.2320178    -0.5082603
C           4.6223404     1.6671053    -0.2122643
H           4.4788193     2.7400964    -0.3109040
C           1.0337730    -3.1881053    -0.2927768
H           0.5348024    -4.1136648    -0.0393937
C           2.2877806    -2.7350284     0.1964237
H           2.9194725    -3.2379497     0.9161012
C           2.5451572    -1.4914975    -0.3641397
N           1.4650736    -1.1936408    -1.1747791
H           1.4243974    -0.3972272    -1.7922768
C           0.5522773    -2.2190260    -1.1483795
H          -0.3541141    -2.1744413    -1.7348186
20
433_C10H9N_4-6-15-16 (-135,) energy =    -441.2268325
C           5.8905178     1.1498696     0.0434828
H           6.7462951     1.8140819     0.1281505
C           6.0675958    -0.2351264     0.0889294
H           7.0649092    -0.6528048     0.2005176
C           4.9728768    -1.0889872    -0.0306402
H           5.1154273    -2.1658587    -0.0260647
C           3.6720145    -0.5745663    -0.1712803
C           3.5076012     0.8217217    -0.2157069
H           2.5072761     1.2393083    -0.3032475
C           4.6061353     1.6741976    -0.1135735
H           4.4567544     2.7504775    -0.1441108
C           0.9980887    -3.1579972    -0.2520517
H           0.4653946    -4.0552883     0.0326693
C           2.2029893    -2.6652342     0.3186660
H           2.7606905    -3.1032545     1.1355631
C           2.5255304    -1.4780991    -0.3210682
N           1.5418246    -1.2568867    -1.2669623
H           1.5641787    -0.5047942    -1.9388780
C           0.6162501    -2.2710237    -1.2370424
H          -0.2268525    -2.2777078    -1.9127545
20
433_C10H9N_4-6-15-16 (-120,) energy =    -441.2248882
C           5.8902079     1.1497274     0.0293142
H           6.7486874     1.8122819     0.1001437
C           6.0732622    -0.2336715    -0.0281024
H           7.0767628    -0.6510413    -0.0107861
C           4.9729603    -1.0843128    -0.1283810
H           5.1150202    -2.1590811    -0.1970333
C           3.6662171    -0.5684533    -0.1445186
C           3.4961396     0.8259644    -0.0930607
H           2.4903174     1.2388278    -0.0987343
C           4.5978752     1.6769640    -0.0078794
H           4.4464278     2.7523404     0.0390351
C           0.9555539    -3.1214317    -0.2059124
H           0.3842369    -3.9820812     0.1149405
C           2.1080124    -2.5790667     0.4276808
H           2.5838158    -2.9383781     1.3303252
C           2.5078429    -1.4665278    -0.2939193
N           1.6294188    -1.3424086    -1.3538924
H           1.7171489    -0.6482475    -2.0806223
C           0.6858083    -2.3398325    -1.3094410
H          -0.0893756    -2.4092686    -2.0589610
20
433_C10H9N_4-6-15-16 (-105,) energy =    -441.2228771
C           5.8914503     1.1547028     0.0324738
H           6.7492886     1.8179413     0.1062724
C           6.0788797    -0.2160689    -0.1562458
H           7.0839379    -0.6223437    -0.2353522
C           4.9778102    -1.0669902    -0.2558341
H           5.1204171    -2.1323722    -0.4135187
C           3.6713226    -0.5641915    -0.1482949
C           3.4965606     0.8173984     0.0342273
H           2.4892684     1.2168018     0.1193435
C           4.5971739     1.6700977     0.1249388
H           4.4441962     2.7359427     0.2735340
C           0.8960522    -3.0579441    -0.1441182
H           0.2713397    -3.8592765     0.2270554
C           2.0023456    -2.4597375     0.5234371
H           2.3859004    -2.7131677     1.5026266
C           2.5044680    -1.4627124    -0.2937870
N           1.7347856    -1.4615092    -1.4415005
H           1.8973790    -0.8533785    -2.2297405
C           0.7557656    -2.4226196    -1.3591084
H           0.0498048    -2.5711985    -2.1635310
20
433_C10H9N_4-6-15-16 (-90,) energy =    -441.2219703
C           5.8893612     1.1643861     0.0538030
H           6.7410726     1.8327699     0.1495906
C           6.0835782    -0.1727978    -0.2975735
H           7.0877551    -0.5488565    -0.4754599
C           4.9896014    -1.0306213    -0.4185033
H           5.1389500    -2.0731593    -0.6859401
C           3.6850599    -0.5657652    -0.1895351
C           3.5038585     0.7805045     0.1642278
H           2.4978737     1.1468050     0.3500766
C           4.5970307     1.6392534     0.2853941
H           4.4398307     2.6783564     0.5628697
C           0.8175090    -2.9558020    -0.0801899
H           0.1225810    -3.6651336     0.3489060
C           1.8860944    -2.2958988     0.5919501
H           2.1658997    -2.4025458     1.6313781
C           2.5223151    -1.4768935    -0.3226090
N           1.8602852    -1.6304254    -1.5255622
H           2.1119203    -1.1477249    -2.3747722
C           0.8252613    -2.5248519    -1.3888860
H           0.1898040    -2.7760849    -2.2259332
20
433_C10H9N_4-6-15-16 (-75,) energy =    -441.2228558
C           5.8813243     1.1653862     0.0736822
H           6.7291909     1.8355377     0.1887632
C           6.0689378    -0.1210893    -0.4355996
H           7.0647389    -0.4584018    -0.7114694
C           4.9811248    -0.9831799    -0.5759952
H           5.1307326    -1.9919704    -0.9519360
C           3.6854321    -0.5675235    -0.2278946
C           3.5125789     0.7249317     0.2923680
H           2.5152058     1.0487727     0.5762743
C           4.6012503     1.5846199     0.4413983
H           4.4494082     2.5830318     0.8433737
C           0.7349383    -2.8434976    -0.0567070
H          -0.0300688    -3.4558769     0.4014827
C           1.7622620    -2.1198291     0.6126920
H           1.9364947    -2.0729661     1.6792552
C           2.5341590    -1.4897719    -0.3473133
N           1.9825931    -1.8064879    -1.5742182
H           2.3234555    -1.4528827    -2.4553159
C           0.8932663    -2.6280481    -1.4087426
H           0.3307829    -2.9879405    -2.2582317
20
433_C10H9N_4-6-15-16 (-60,) energy =    -441.2248713
C           5.8812315     1.1633495     0.0762581
H           6.7310668     1.8306649     0.1923096
C           6.0404354    -0.0731281    -0.5528173
H           7.0179665    -0.3766780    -0.9186945
C           4.9514791    -0.9329517    -0.6927013
H           5.0861896    -1.9085177    -1.1533660
C           3.6765809    -0.5606924    -0.2318032
C           3.5329564     0.6812175     0.4087890
H           2.5530147     0.9737884     0.7750043
C           4.6255470     1.5341702     0.5618925
H           4.4944930     2.4936291     1.0556071
C           0.6768295    -2.7599292    -0.0602075
H          -0.1419063    -3.3002686     0.3956126
C           1.6504669    -1.9664148     0.6076763
H           1.7264501    -1.7887613     1.6720195
C           2.5306434    -1.4798844    -0.3447220
N           2.0928193    -1.9505009    -1.5685484
H           2.5151688    -1.7054509    -2.4512867
C           0.9714330    -2.7274198    -1.4068883
H           0.4829155    -3.1869512    -2.2540629
20
433_C10H9N_4-6-15-16 (-45,) energy =    -441.2268338
C           5.8830306     1.1586642     0.0760549
H           6.7371630     1.8210746     0.1873666
C           6.0035513    -0.0284055    -0.6491665
H           6.9568243    -0.2997841    -1.0955284
C           4.9100429    -0.8825946    -0.7840089
H           5.0232020    -1.8245117    -1.3156385
C           3.6643620    -0.5538093    -0.2191350
C           3.5587901     0.6416924     0.5129404
H           2.6006969     0.9091873     0.9493845
C           4.6577410     1.4856245     0.6617133
H           4.5541744     2.4077722     1.2277992
C           0.6301252    -2.6991533    -0.0795182
H          -0.2305923    -3.1864204     0.3583069
C           1.5478767    -1.8371054     0.5799155
H           1.5349203    -1.5512919     1.6231162
C           2.5144653    -1.4574280    -0.3389116
N           2.1861263    -2.0677514    -1.5353399
H           2.6723237    -1.9053179    -2.4041632
C           1.0446930    -2.8173452    -1.3898431
H           0.6269404    -3.3660537    -2.2216242
20
433_C10H9N_4-6-15-16 (-30,) energy =    -441.2278894
C           5.8986605     1.1426499     0.0601257
H           6.7599956     1.7887440     0.2054210
C           5.0343964     0.8714722     1.1222412
H           5.2142262     1.3148752     2.0982865
C           3.9255027     0.0480917     0.9344177
H           3.2369055    -0.1159914     1.7600576
C           3.6650147    -0.5398786    -0.3173147
C           4.5456044    -0.2584386    -1.3779640
H           4.3708715    -0.7182050    -2.3464551
C           5.6436204     0.5775284    -1.1920528
H           6.3113901     0.7786238    -2.0258388
C           0.7271508    -2.5864407    -1.3119483
H          -0.0464211    -2.9748883    -1.9604152
C           1.7363587    -1.6489862    -1.6580561
H           1.8660279    -1.1643731    -2.6162978
C           2.5048907    -1.4068840    -0.5277861
N           1.9692109    -2.1799894     0.4860826
H           2.3881031    -2.2864380     1.3973689
C           0.9020176    -2.9064257     0.0185159
H           0.3617021    -3.5833535     0.6644929
20
433_C10H9N_4-6-15-16 (-15,) energy =    -441.2277875
C           5.8989067     1.1473338     0.0572366
H           6.7585696     1.7960195     0.2000134
C           5.0979518     0.7879111     1.1418008
H           5.3264348     1.1620073     2.1364975
C           3.9929325    -0.0414709     0.9584338
H           3.3636847    -0.2718869     1.8148871
C           3.6622375    -0.5412399    -0.3151565
C           4.4846906    -0.1739894    -1.3975930
H           4.2668366    -0.5656395    -2.3867657
C           5.5813138     0.6628768    -1.2144668
H           6.1984535     0.9300857    -2.0684602
C           0.7767267    -2.6506288    -1.3301368
H           0.0513848    -3.0939984    -1.9986669
C           1.8339658    -1.7732115    -1.6848425
H           2.0520101    -1.4003196    -2.6762227
C           2.5183128    -1.4276849    -0.5257820
N           1.8743212    -2.0737887     0.5143648
H           2.2068894    -2.0932654     1.4658492
C           0.8317940    -2.8277622     0.0369428
H           0.2226060    -3.4218341     0.7028705
20
433_C10H9N_4-6-15-16 (0,) energy =    -441.2272963
C           5.9063254     1.1577907     0.0511605
H           6.7623906     1.8117102     0.1911046
C           5.1912340     0.6840127     1.1511119
H           5.4870338     0.9667887     2.1581307
C           4.0930460    -0.1549638     0.9712705
H           3.5626141    -0.5022534     1.8546898
C           3.6750785    -0.5467124    -0.3147082
C           4.4093202    -0.0581804    -1.4134014
H           4.1153098    -0.3394427    -2.4198842
C           5.5053786     0.7791037    -1.2327077
H           6.0505990     1.1388130    -2.1015428
C           0.8556802    -2.7350708    -1.3560335
H           0.2050989    -3.2676292    -2.0362256
C           1.9635785    -1.9208377    -1.7018620
H           2.3147197    -1.7171942    -2.7038690
C           2.5255407    -1.4259249    -0.5296538
N           1.7656280    -1.9367779     0.5073913
H           1.9262591    -1.7552019     1.4852346
C           0.7563671    -2.7268492     0.0201875
H           0.0579083    -3.2123942     0.6864060
20
433_C10H9N_4-6-15-16 (15,) energy =    -441.2277875
C           5.8987096     1.1475642     0.0571945
H           6.7515632     1.8052713     0.1995213
C           5.2695939     0.5599872     1.1553575
H           5.6350593     0.7520439     2.1609055
C           4.1775747    -0.2866486     0.9730029
H           3.7329056    -0.7621562     1.8440467
C           3.6790392    -0.5635063    -0.3138447
C           4.3215341     0.0427122    -1.4105100
H           3.9418341    -0.1339759    -2.4124699
C           5.4184128     0.8792395    -1.2273768
H           5.8948980     1.3332573    -2.0924775
C           0.9121652    -2.8304465    -1.3194459
H           0.3235257    -3.4553701    -1.9771726
C           2.0676271    -2.0834703    -1.6663849
H           2.5423616    -2.0514784    -2.6374821
C           2.5230354    -1.4339117    -0.5254141
N           1.6651523    -1.7959584     0.4978327
H           1.6846323    -1.3996413     1.4245768
C           0.6796229    -2.6256233     0.0249080
H          -0.0973743    -2.9968401     0.6775681
20
433_C10H9N_4-6-15-16 (30,) energy =    -441.2278894
C           5.8827066     1.1455335     0.0621149
H           6.7334904     1.8065309     0.2024686
C           5.3251897     0.4738624     1.1514375
H           5.7474932     0.6017224     2.1448740
C           4.2379839    -0.3794697     0.9705914
H           3.8446696    -0.9304666     1.8217563
C           3.6696874    -0.5666854    -0.3031287
C           4.2414939     0.1179101    -1.3912357
H           3.8045547    -0.0000233    -2.3786900
C           5.3378543     0.9572196    -1.2106868
H           5.7612267     1.4774211    -2.0660819
C           0.9457711    -2.9034222    -1.2671082
H           0.3937330    -3.5900272    -1.8945209
C           2.1435983    -2.2184002    -1.6033718
H           2.6962911    -2.3012640    -2.5294108
C           2.5277038    -1.4590288    -0.5067394
N           1.5825777    -1.6824428     0.4778297
H           1.5469851    -1.1801831     1.3517382
C           0.6152166    -2.5442704     0.0231711
H          -0.2189726    -2.8271724     0.6489099
20
433_C10H9N_4-6-15-16 (45,) energy =    -441.2268338
C           5.8742376     1.1504179     0.0609489
H           6.7231584     1.8149119     0.1969683
C           5.3887257     0.4010217     1.1343961
H           5.8665435     0.4712713     2.1082389
C           4.3053866    -0.4584067     0.9573590
H           3.9593168    -1.0689083     1.7881213
C           3.6668202    -0.5657768    -0.2914838
C           4.1695365     0.1903667    -1.3647160
H           3.6816048     0.1201029    -2.3326856
C           5.2637595     1.0355084    -1.1901886
H           5.6344211     1.6151879    -2.0316857
C           0.9859161    -2.9621293    -1.2395602
H           0.4698567    -3.6985420    -1.8406707
C           2.2274053    -2.3376470    -1.5378429
H           2.8526937    -2.5165205    -2.4022176
C           2.5394144    -1.4835327    -0.4910226
N           1.5043532    -1.5787218     0.4207501
H           1.4252915    -1.0055402     1.2470906
C           0.5570605    -2.4672165    -0.0255045
H          -0.3335633    -2.6707986     0.5513851
20
433_C10H9N_4-6-15-16 (60,) energy =    -441.2248713
C           5.8735560     1.1542868     0.0578284
H           6.7224088     1.8206338     0.1860020
C           5.4671250     0.3256729     1.1057659
H           6.0058771     0.3367627     2.0497987
C           4.3837836    -0.5361040     0.9372429
H           4.0908018    -1.2035026     1.7439832
C           3.6684875    -0.5650285    -0.2726681
C           4.0948571     0.2657652    -1.3221070
H           3.5528160     0.2443687    -2.2632406
C           5.1877004     1.1163423    -1.1580067
H           5.5001817     1.7559802    -1.9794132
C           1.0260577    -3.0185160    -1.2013684
H           0.5466556    -3.8044812    -1.7692584
C           2.3077888    -2.4516312    -1.4453103
H           3.0016515    -2.7245585    -2.2290359
C           2.5459786    -1.4991083    -0.4683493
N           1.4266648    -1.4720368     0.3424055
H           1.2997909    -0.8273897     1.1079045
C           0.5009250    -2.3891399    -0.0925316
H          -0.4429986    -2.5156729     0.4178803
20
433_C10H9N_4-6-15-16 (75,) energy =    -441.2228558
C           5.8724559     1.1572217     0.0588726
H           6.7195580     1.8262683     0.1854387
C           5.5502005     0.2376128     1.0589008
H           6.1502508     0.1833540     1.9636103
C           4.4671787    -0.6258475     0.8923226
H           4.2298498    -1.3563662     1.6613412
C           3.6769175    -0.5716305    -0.2675527
C           4.0182275     0.3507763    -1.2693832
H           3.4195675     0.3893663    -2.1751123
C           5.1065259     1.2085983    -1.1074345
H           5.3554141     1.9186493    -1.8918760
C           1.0631153    -3.0872902    -1.1360395
H           0.6182424    -3.9317829    -1.6450602
C           2.3791787    -2.5766212    -1.3214544
H           3.1351182    -2.9548572    -1.9964381
C           2.5459400    -1.5064692    -0.4604245
N           1.3548159    -1.3550373     0.2237694
H           1.1784645    -0.6244255     0.8965722
C           0.4507985    -2.3095369    -0.1770534
H          -0.5400568    -2.3554729     0.2514758
20
433_C10H9N_4-6-15-16 (90,) energy =    -441.2219704
C           5.8673430     1.1659488     0.0780363
H           6.7063169     1.8417899     0.2218228
C           5.6336088     0.1356547     0.9908015
H           6.2905560     0.0064071     1.8470505
C           4.5574805    -0.7329745     0.8047498
H           4.3772457    -1.5390796     1.5107385
C           3.6991085    -0.5859473    -0.2961245
C           3.9461209     0.4533494    -1.2067546
H           3.2904543     0.5699361    -2.0653730
C           5.0218524     1.3227328    -1.0218938
H           5.2010725     2.1207416    -1.7377936
C           1.1012990    -3.1678858    -1.0260197
H           0.6826265    -4.0781434    -1.4338851
C           2.4432407    -2.7101681    -1.1627878
H           3.2474220    -3.2013294    -1.6939472
C           2.5527389    -1.5067321    -0.4905744
N           1.3092650    -1.2335259     0.0461338
H           1.0968370    -0.4123402     0.5920507
C           0.4226390    -2.2343839    -0.2733926
H          -0.6048130    -2.1973977     0.0590622
20
433_C10H9N_4-6-15-16 (105,) energy =    -441.2228771
C           5.8555942     1.1661100     0.0982488
H           6.6862706     1.8473912     0.2627061
C           5.7040191     0.0372728     0.9060318
H           6.4139050    -0.1597055     1.7052336
C           4.6351362    -0.8348953     0.6983337
H           4.5085535    -1.7080771     1.3321857
C           3.7113765    -0.6036444    -0.3333978
C           3.8712395     0.5392200    -1.1339900
H           3.1619241     0.7271042    -1.9358466
C           4.9349317     1.4166522    -0.9210413
H           5.0480146     2.2926421    -1.5545761
C           1.1130252    -3.2220388    -0.8932150
H           0.7050787    -4.1813415    -1.1821547
C           2.4740016    -2.8127453    -0.9803094
H           3.3065987    -3.3964075    -1.3494634
C           2.5563019    -1.5083844    -0.5265373
N           1.2792642    -1.1334337    -0.1547196
H           1.0479601    -0.2366173     0.2450316
C           0.3972055    -2.1640091    -0.3758202
H          -0.6538580    -2.0580379    -0.1486914
20
433_C10H9N_4-6-15-16 (120,) energy =    -441.2248882
C           5.8521061     1.1627911     0.1018425
H           6.6814824     1.8448359     0.2689694
C           5.7700525    -0.0326385     0.8193475
H           6.5321211    -0.2798850     1.5539439
C           4.7014318    -0.9041670     0.6124763
H           4.6238505    -1.8229145     1.1868497
C           3.7087825    -0.6097373    -0.3372122
C           3.7995103     0.5998290    -1.0476289
H           3.0415581     0.8378564    -1.7899349
C           4.8607308     1.4781583    -0.8293966
H           4.9184191     2.4052355    -1.3939949
C           1.1168296    -3.2454007    -0.7891865
H           0.7148537    -4.2298713    -0.9874337
C           2.4878149    -2.8659647    -0.8026535
H           3.3362498    -3.5005810    -1.0210110
C           2.5584044    -1.5113111    -0.5229078
N           1.2609920    -1.0769958    -0.3262699
H           1.0164568    -0.1385264    -0.0484720
C           0.3807684    -2.1196613    -0.4852811
H          -0.6836854    -1.9746934    -0.3693879
20
433_C10H9N_4-6-15-16 (135,) energy =    -441.2268326
C           5.8585974     1.1597601     0.0944833
H           6.6935212     1.8375604     0.2500263
C           5.8291834    -0.0801675     0.7373248
H           6.6390294    -0.3669792     1.4032354
C           4.7539147    -0.9460256     0.5477279
H           4.7176213    -1.8963405     1.0726820
C           3.6961553    -0.6013257    -0.3119437
C           3.7376152     0.6504492    -0.9523321
H           2.9385251     0.9270126    -1.6361626
C           4.8057890     1.5227595    -0.7476401
H           4.8216636     2.4828709    -1.2571108
C           1.1182253    -3.2504412    -0.7184909
H           0.7219955    -4.2476421    -0.8546646
C           2.4888358    -2.8828584    -0.6354946
H           3.3434504    -3.5415205    -0.7130504
C           2.5542732    -1.5057491    -0.4882864
N           1.2507198    -1.0452523    -0.4755161
H           0.9929241    -0.0879039    -0.2893091
C           0.3741103    -2.0944679    -0.6065509
H          -0.6942071    -1.9326969    -0.6093016
20
433_C10H9N_4-6-15-16 (150,) energy =    -441.2278866
C           5.8702190     1.1529380     0.0803329
H           6.7138099     1.8237620     0.2174882
C           5.8837414    -0.1230824     0.6494911
H           6.7377694    -0.4469273     1.2388355
C           4.7993070    -0.9806445     0.4834661
H           4.8029389    -1.9587561     0.9558704
C           3.6795331    -0.5904459    -0.2738632
C           3.6831098     0.6943637    -0.8478507
H           2.8473212     1.0083428    -1.4688442
C           4.7626584     1.5573480    -0.6667699
H           4.7435673     2.5437558    -1.1231422
C           1.1217250    -3.2588022    -0.6557551
H           0.7311141    -4.2640393    -0.7378271
C           2.4796977    -2.8856608    -0.4724778
H           3.3300690    -3.5514640    -0.4133027
C           2.5447217    -1.4994352    -0.4408146
N           1.2511087    -1.0401509    -0.6082761
H           0.9793198    -0.0724945    -0.5241440
C           0.3819773    -2.0964957    -0.7259901
H          -0.6795741    -1.9350548    -0.8462445
20
433_C10H9N_4-6-15-16 (165,) energy =    -441.2277888
C           5.8955139     1.1508987     0.0657550
H           6.7454293     1.8169918     0.1847490
C           5.9487185    -0.1577472     0.5529448
H           6.8425723    -0.5147095     1.0580932
C           4.8586618    -1.0103231     0.4071300
H           4.9060171    -2.0162050     0.8136488
C           3.6825687    -0.5823461    -0.2383563
C           3.6497360     0.7343108    -0.7349146
H           2.7780208     1.0904798    -1.2787574
C           4.7384195     1.5903958    -0.5783874
H           4.6844392     2.6017124    -0.9732326
C           1.1413034    -3.2735572    -0.5693921
H           0.7523674    -4.2825994    -0.5845862
C           2.4771322    -2.8807933    -0.2961253
H           3.3080189    -3.5404598    -0.0868198
C           2.5517779    -1.4965693    -0.3944326
N           1.2838913    -1.0616076    -0.7369778
H           1.0061151    -0.0935055    -0.7810853
C           0.4218127    -2.1253848    -0.8288222
H          -0.6215711    -1.9781694    -1.0678597
20
433_C10H9N_4-6-15-16 (180,) energy =    -441.2272963
C           5.9055931     1.1547445     0.0778096
H           6.7552182     1.8205179     0.2000898
C           6.0018683    -0.1920240     0.4373141
H           6.9316729    -0.5822420     0.8432039
C           4.9141051    -1.0449162     0.2809598
H           5.0116945    -2.0876730     0.5666955
C           3.6905544    -0.5805882    -0.2409662
C           3.6115164     0.7787743    -0.5982339
H           2.6917754     1.1906777    -1.0067326
C           4.7020029     1.6322144    -0.4410173
H           4.6071981     2.6765887    -0.7269815
C           1.1289876    -3.2668277    -0.4470339
H           0.7165428    -4.2612878    -0.3447906
C           2.4418043    -2.8528127    -0.1077447
H           3.2199872    -3.4799188     0.3045455
C           2.5608518    -1.4972935    -0.3960839
N           1.3354184    -1.1017886    -0.9019237
H           1.1091499    -0.1675886    -1.2036438
C           0.4651611    -2.1608462    -0.9370579
H          -0.5442918    -2.0406814    -1.3031515
