23
078_C12H10O_0-5-6-10 (-165,) energy =    -538.5124458
C          -0.0814363     1.1348741    -0.8697663
C          -1.3058456     0.5353145    -0.5856075
C          -1.3911982    -0.4908788     0.3594387
C          -0.2363697    -0.9059923     1.0226254
C           0.9988193    -0.3125478     0.7522574
C           1.0705810     0.7051659    -0.2031048
O           2.2288058     1.3888849    -0.5135786
C           6.0504748     0.0081055     0.4169057
C           5.6013234     1.2416693     0.8916005
C           4.3077546     1.6798565     0.6034200
C           3.4687934     0.8779613    -0.1701730
C           3.9092272    -0.3549423    -0.6598667
C           5.2007922    -0.7861039    -0.3574653
H           0.0047918     1.9330056    -1.6004248
H          -2.1975513     0.8718859    -1.1078215
H          -2.3469507    -0.9586382     0.5769698
H          -0.2899498    -1.6972416     1.7659076
H           1.8906555    -0.6326989     1.2793516
H           7.0567901    -0.3314175     0.6449273
H           6.2567781     1.8670017     1.4916870
H           3.9387594     2.6357869     0.9614437
H           3.2457939    -0.9585744    -1.2713116
H           5.5465678    -1.7436471    -0.7375873
23
078_C12H10O_0-5-6-10 (-150,) energy =    -538.5127056
C          -0.0337791     1.1147597    -0.8584891
C          -1.2501888     0.4519442    -0.7024649
C          -1.3815121    -0.5759152     0.2341590
C          -0.2843649    -0.9305510     1.0213350
C           0.9376511    -0.2710656     0.8817536
C           1.0578685     0.7486510    -0.0674297
O           2.2065375     1.4995877    -0.2263554
C           6.0614078    -0.0003642     0.2968663
C           5.7007828     1.2536240     0.7939601
C           4.3978929     1.7269905     0.6381538
C           3.4552676     0.9407018    -0.0265181
C           3.8057644    -0.3124174    -0.5384456
C           5.1097958    -0.7775987    -0.3675028
H           0.0885526     1.9151544    -1.5813984
H          -2.0970516     0.7393015    -1.3199090
H          -2.3292684    -1.0934283     0.3509535
H          -0.3773705    -1.7228706     1.7594679
H           1.7861343    -0.5397092     1.5019389
H           7.0755160    -0.3682757     0.4233424
H           6.4337435     1.8674664     1.3105370
H           4.0968988     2.6982776     1.0178084
H           3.0667607    -0.9082489    -1.0642399
H           5.3833746    -1.7512010    -0.7654796
23
078_C12H10O_0-5-6-10 (-135,) energy =    -538.5126836
C           0.0432266     1.0802807    -0.8526570
C          -1.1623765     0.3790859    -0.8104407
C          -1.3599335    -0.6305893     0.1333590
C          -0.3450125    -0.9314569     1.0450658
C           0.8614783    -0.2319508     1.0204263
C           1.0487546     0.7708031     0.0643426
O           2.1886320     1.5536363     0.0372659
C           6.0602624     0.0077804     0.1706451
C           5.7580391     1.2618464     0.7068552
C           4.4520619     1.7479601     0.6742461
C           3.4421010     0.9758613     0.0946210
C           3.7319330    -0.2769650    -0.4540034
C           5.0429797    -0.7537483    -0.4072390
H           0.2180211     1.8679494    -1.5787404
H          -1.9464253     0.6214301    -1.5227532
H          -2.2978538    -1.1777442     0.1607018
H          -0.4935761    -1.7105488     1.7880481
H           1.6498402    -0.4535242     1.7327250
H           7.0778164    -0.3708309     0.2012987
H           6.5408109     1.8655022     1.1584266
H           4.1966322     2.7187362     1.0871750
H           2.9445600    -0.8654398    -0.9126712
H           5.2677642    -1.7274614    -0.8346125
23
078_C12H10O_0-5-6-10 (-120,) energy =    -538.5124443
C           0.1469008     1.4784734     0.3084956
C          -1.0868342     1.0901723    -0.2168681
C          -1.3851417    -0.2627093    -0.3888715
C          -0.4447915    -1.2308416    -0.0267670
C           0.7876073    -0.8547862     0.5073440
C           1.0756856     0.5030438     0.6698265
O           2.2545511     0.9170601     1.2680413
C           6.0231025     0.1875894    -0.3634941
C           5.8587879     0.4991523     0.9889798
C           4.5881330     0.7217160     1.5140932
C           3.4706193     0.6364839     0.6776433
C           3.6201298     0.3322686    -0.6783195
C           4.9006635     0.1068714    -1.1879436
H           0.3992374     2.5244175     0.4516930
H          -1.8133610     1.8489685    -0.4946653
H          -2.3451430    -0.5619850    -0.7997259
H          -0.6733030    -2.2858289    -0.1521210
H           1.5221435    -1.5978287     0.8020104
H           7.0150439     0.0111284    -0.7690791
H           6.7244755     0.5660520     1.6426057
H           4.4399997     0.9629271     2.5620743
H           2.7511709     0.2763224    -1.3248123
H           5.0153304    -0.1288152    -2.2427887
23
078_C12H10O_0-5-6-10 (-105,) energy =    -538.5121980
C           0.2653189     1.4196796     0.2790499
C          -0.9668415     1.1179309    -0.3041045
C          -1.3761106    -0.2101622    -0.4389999
C          -0.5502806    -1.2411357     0.0162632
C           0.6808487    -0.9502710     0.6047598
C           1.0798585     0.3817956     0.7308689
O           2.2625217     0.6955095     1.3837916
C           6.0087650     0.3289085    -0.4147555
C           5.8720052     0.5987749     0.9502066
C           4.6095010     0.7078262     1.5268045
C           3.4698666     0.5480682     0.7310991
C           3.5904924     0.2812048    -0.6351811
C           4.8651386     0.1724184    -1.1971301
H           0.6007756     2.4451813     0.3980515
H          -1.6065220     1.9239856    -0.6531160
H          -2.3355530    -0.4412860    -0.8930175
H          -0.8666774    -2.2761542    -0.0808455
H           1.3306719    -1.7383649     0.9725848
H           6.9951676     0.2424999    -0.8610053
H           6.7541479     0.7235001     1.5726927
H           4.4832867     0.9157533     2.5847348
H           2.7056006     0.1627707    -1.2504082
H           4.9567593    -0.0347514    -2.2602302
23
078_C12H10O_0-5-6-10 (-90,) energy =    -538.5121400
C           0.3987518     1.3398946     0.2409886
C          -0.8381361     1.1352739    -0.3723687
C          -1.3761124    -0.1507320    -0.4609609
C          -0.6739899    -1.2358947     0.0682167
C           0.5641616    -1.0417405     0.6829222
C           1.0915117     0.2472772     0.7638485
O           2.2810960     0.4542343     1.4473451
C           5.9981658     0.4795938    -0.4471766
C           5.8712305     0.7073174     0.9265519
C           4.6183956     0.6945295     1.5331775
C           3.4779394     0.4511405     0.7597989
C           3.5893489     0.2214558    -0.6138661
C           4.8545060     0.2382037    -1.2072447
H           0.8298809     2.3324585     0.3276065
H          -1.3830329     1.9836277    -0.7775222
H          -2.3404607    -0.3057868    -0.9364629
H          -1.0907928    -2.2374834     0.0063596
H           1.1219505    -1.8707248     1.1073790
H           6.9772653     0.4906144    -0.9170730
H           6.7537767     0.8968593     1.5319024
H           4.5000452     0.8692651     2.5979946
H           2.7044947     0.0323739    -1.2111188
H           4.9382036     0.0591876    -2.2761183
23
078_C12H10O_0-5-6-10 (-75,) energy =    -538.5122633
C           0.5324246     1.2402829     0.1884924
C          -0.7179625     1.1362963    -0.4212209
C          -1.3912936    -0.0878056    -0.4488942
C          -0.8085534    -1.2129466     0.1371963
C           0.4453160    -1.1213783     0.7446409
C           1.1077150     0.1054800     0.7646496
O           2.3082368     0.2006325     1.4519617
C           5.9895062     0.6340794    -0.4624761
C           5.8532556     0.8169261     0.9167814
C           4.6109640     0.6766399     1.5296610
C           3.4921015     0.3470516     0.7572167
C           3.6136837     0.1570028    -0.6218333
C           4.8668772     0.3047811    -1.2214731
H           1.0632125     2.1865028     0.2283888
H          -1.1702871     2.0170699    -0.8689473
H          -2.3668666    -0.1623186    -0.9208773
H          -1.3288519    -2.1667897     0.1230961
H           0.9142668    -1.9823857     1.2105151
H           6.9595212     0.7467141    -0.9378445
H           6.7192763     1.0734029     1.5212850
H           4.4852282     0.8160435     2.5988351
H           2.7458120    -0.1045992    -1.2168889
H           4.9591959     0.1559846    -2.2942299
23
078_C12H10O_0-5-6-10 (-60,) energy =    -538.5125343
C           0.6508972     1.1308858     0.1232744
C          -0.6187811     1.1261312    -0.4537971
C          -1.4158514    -0.0206569    -0.4058756
C          -0.9354721    -1.1700084     0.2240440
C           0.3373948    -1.1803224     0.7971629
C           1.1239675    -0.0299386     0.7417322
O           2.3399404    -0.0476527     1.4040921
C           5.9781991     0.7797503    -0.4611850
C           5.8175677     0.9142795     0.9204487
C           4.5871596     0.6509738     1.5183208
C           3.5080577     0.2439999     0.7279239
C           3.6560722     0.0979944    -0.6543165
C           4.8942357     0.3715016    -1.2391008
H           1.2732629     2.0200342     0.1018315
H          -0.9897434     2.0272058    -0.9348480
H          -2.4056590    -0.0160141    -0.8533149
H          -1.5497982    -2.0652064     0.2689037
H           0.7296062    -2.0624664     1.2932962
H           6.9376303     0.9896119    -0.9249424
H           6.6535108     1.2305587     1.5387259
H           4.4422843     0.7517958     2.5893759
H           2.8184633    -0.2276195    -1.2614812
H           5.0078647     0.2567561    -2.3139453
23
078_C12H10O_0-5-6-10 (-45,) energy =    -538.5127155
C           0.7496743     1.0225761     0.0508889
C          -0.5410914     1.1136339    -0.4703619
C          -1.4396139     0.0523528    -0.3381449
C          -1.0384168    -1.1103257     0.3227707
C           0.2523094    -1.2184369     0.8407749
C           1.1416794    -0.1516534     0.7010439
O           2.3758636    -0.2833293     1.3103793
C           5.9662968     0.9103091    -0.4430435
C           5.7657091     1.0016413     0.9362112
C           4.5480764     0.6231825     1.4999005
C           3.5268867     0.1433919     0.6762752
C           3.7173668     0.0377097    -0.7048476
C           4.9387165     0.4278713    -1.2558189
H           1.4466087     1.8493807    -0.0399997
H          -0.8469534     2.0259855    -0.9755219
H          -2.4438134     0.1325224    -0.7442842
H          -1.7296334    -1.9415059     0.4334814
H           0.5840296    -2.1136597     1.3571833
H           6.9144361     1.2101525    -0.8798748
H           6.5584066     1.3741547     1.5795113
H           4.3718730     0.6882090     2.5689831
H           2.9226133    -0.3472694    -1.3350351
H           5.0867196     0.3449206    -2.3293429
23
078_C12H10O_0-5-6-10 (-30,) energy =    -538.5126702
C           0.8253717     0.9191622    -0.0256080
C          -0.4844893     1.1013024    -0.4727535
C          -1.4578655     0.1259124    -0.2511795
C          -1.1130265    -1.0454229     0.4277926
C           0.1919328    -1.2447461     0.8742200
C           1.1582218    -0.2612794     0.6453357
O           2.4098971    -0.5057209     1.1750846
C           5.9506922     1.0240743    -0.4074507
C           5.6915099     1.0784216     0.9634433
C           4.4876556     0.5920651     1.4740259
C           3.5443154     0.0422294     0.6048101
C           3.7955424    -0.0278880    -0.7688468
C           4.9992845     0.4704345    -1.2675387
H           1.5771523     1.6835929    -0.1898170
H          -0.7427384     2.0199424    -0.9930414
H          -2.4745787     0.2770145    -0.6020527
H          -1.8615129    -1.8124205     0.6081247
H           0.4804389    -2.1485523     1.4015843
H           6.8871415     1.4070063    -0.8027285
H           6.4260046     1.5048536     1.6413411
H           4.2661530     0.6251157     2.5360757
H           3.0581810    -0.4698293    -1.4312010
H           5.1961893     0.4160227    -2.3349538
23
078_C12H10O_0-5-6-10 (-15,) energy =    -538.5123892
C           0.8875724     0.8336046    -0.0976106
C          -0.4365511     1.1122396    -0.4446884
C          -1.4627662     0.2200176    -0.1345883
C          -1.1564282    -0.9682163     0.5347709
C           0.1583487    -1.2636582     0.8854449
C           1.1782549    -0.3603345     0.5682755
O           2.4435926    -0.7223806     0.9842464
C           5.9293414     1.1196894    -0.3708114
C           5.5826262     1.1573643     0.9808716
C           4.3963180     0.5678360     1.4212789
C           3.5630850    -0.0662442     0.5001391
C           3.9025150    -0.1192393    -0.8545664
C           5.0861133     0.4810113    -1.2838472
H           1.6787183     1.5360327    -0.3348429
H          -0.6614370     2.0422404    -0.9603683
H          -2.4887827     0.4464812    -0.4095333
H          -1.9451517    -1.6732433     0.7837447
H           0.4160953    -2.1820870     1.4035455
H           6.8520385     1.5810374    -0.7110695
H           6.2344792     1.6489114     1.6979581
H           4.1085569     0.5838918     2.4677468
H           3.2461645    -0.6290798    -1.5529621
H           5.3540913     0.4406601    -2.3362005
23
078_C12H10O_0-5-6-10 (0,) energy =    -538.5121421
C           0.9323468     0.7889533    -0.1030141
C          -0.3950203     1.1939376    -0.2674349
C          -1.4496637     0.3589970     0.0993938
C          -1.1691339    -0.9001150     0.6388131
C           0.1472754    -1.3192937     0.8094069
C           1.1969119    -0.4720524     0.4372974
O           2.4666819    -0.9722704     0.6432795
C           5.8903275     1.2048600    -0.3172536
C           5.3158738     1.3262717     0.9500711
C           4.1538365     0.6211931     1.2676450
C           3.5732249    -0.2061924     0.3059489
C           4.1380460    -0.3374465    -0.9630703
C           5.3001152     0.3720074    -1.2705906
H           1.7470907     1.4438993    -0.3906334
H          -0.5983325     2.1754119    -0.6880149
H          -2.4778810     0.6830031    -0.0323733
H          -1.9805416    -1.5621957     0.9295536
H           0.3846627    -2.2929884     1.2264788
H           6.7961702     1.7534234    -0.5594419
H           5.7741560     1.9687854     1.6969894
H           3.6967610     0.6957565     2.2495118
H           3.6686897    -0.9961644    -1.6871775
H           5.7459146     0.2698450    -2.2562738
23
078_C12H10O_0-5-6-10 (15,) energy =    -538.5123900
C           0.8878590     0.8180443    -0.1338093
C          -0.4328667     1.2696951    -0.0778893
C          -1.4570913     0.4360946     0.3709137
C          -1.1529644    -0.8692518     0.7676442
C           0.1588024    -1.3340239     0.7211413
C           1.1774937    -0.4883052     0.2696571
O           2.4391556    -1.0464291     0.2273891
C           5.9314536     1.1839394    -0.2274364
C           5.1059598     1.4119659     0.8766901
C           3.9203828     0.6940998     1.0336523
C           3.5610153    -0.2502355     0.0680773
C           4.3768401    -0.4867897    -1.0379913
C           5.5654052     0.2314554    -1.1800818
H           1.6776173     1.4690287    -0.4917158
H          -0.6565551     2.2852184    -0.3942893
H          -2.4805591     0.7973127     0.4108621
H          -1.9404842    -1.5307015     1.1190258
H           0.4152792    -2.3435432     1.0267671
H           6.8558761     1.7428639    -0.3415150
H           5.3892358     2.1460278     1.6262404
H           3.2775221     0.8536143     1.8937352
H           4.0739665    -1.2331469    -1.7655641
H           6.2036918     0.0458274    -2.0396732
23
078_C12H10O_0-5-6-10 (30,) energy =    -538.5126703
C           0.8287660     0.8230833    -0.2497373
C          -0.4758223     1.2819176    -0.0590465
C          -1.4479236     0.4570600     0.5089007
C          -1.1068144    -0.8434087     0.8888398
C           0.1929503    -1.3135441     0.7112008
C           1.1580015    -0.4777688     0.1425120
O           2.4036891    -1.0388394    -0.0590885
C           5.9584374     1.1386617    -0.1250615
C           5.0206650     1.3888008     0.8796247
C           3.8126421     0.6920387     0.9132595
C           3.5432479    -0.2556420    -0.0789029
C           4.4728933    -0.5150051    -1.0870589
C           5.6812001     0.1822503    -1.1037420
H           1.5793841     1.4627690    -0.7012324
H          -0.7310350     2.2929303    -0.3656633
H          -2.4606036     0.8224298     0.6525627
H          -1.8543482    -1.4966030     1.3310558
H           0.4782202    -2.3197156     1.0018264
H           6.8983134     1.6828419    -0.1426759
H           5.2316832     2.1252145     1.6505047
H           3.0858990     0.8740935     1.6984098
H           4.2374924    -1.2620610    -1.8384807
H           6.4049713    -0.0216635    -1.8882364
23
078_C12H10O_0-5-6-10 (45,) energy =    -538.5127156
C           0.7518743     0.8387995    -0.3761852
C          -0.5321085     1.2894544    -0.0689683
C          -1.4276663     0.4696423     0.6216639
C          -1.0303696    -0.8122813     1.0070165
C           0.2537123    -1.2721289     0.7143480
C           1.1403041    -0.4431531     0.0249333
O           2.3669534    -0.9842594    -0.3131663
C           5.9749049     1.0864533    -0.0183384
C           4.9598944     1.3515449     0.9029702
C           3.7330450     0.6912644     0.8226994
C           3.5242316    -0.2378570    -0.2010144
C           4.5325498    -0.5127244    -1.1278650
C           5.7558493     0.1488343    -1.0301900
H           1.4467422     1.4683080    -0.9224960
H          -0.8348568     2.2855834    -0.3807682
H          -2.4267980     0.8263419     0.8546620
H          -1.7197559    -1.4592191     1.5428389
H           0.5821396    -2.2648107     1.0056672
H           6.9273365     1.6036967     0.0527056
H           5.1222483     2.0732153     1.6992549
H           2.9482662     0.8894688     1.5450593
H           4.3420877    -1.2432908    -1.9077261
H           6.5384226    -0.0674810    -1.7525251
23
078_C12H10O_0-5-6-10 (60,) energy =    -538.5125345
C           0.6527498     0.8642869    -0.5016497
C          -0.6088476     1.2887433    -0.0849101
C          -1.4004632     0.4695075     0.7241317
C          -0.9229387    -0.7817434     1.1182069
C           0.3416982    -1.2137519     0.7152767
C           1.1229510    -0.3863814    -0.0914570
O           2.3296740    -0.8868514    -0.5500285
C           5.9903567     1.0090481     0.0848518
C           4.9186955     1.3036734     0.9283256
C           3.6734004     0.7003140     0.7407766
C           3.5058283    -0.2040939    -0.3117093
C           4.5726629    -0.5085157    -1.1626726
C           5.8103926     0.0973149    -0.9588850
H           1.2711709     1.4879856    -1.1395799
H          -0.9773960     2.2603552    -0.4029047
H          -2.3840928     0.8035648     1.0416495
H          -1.5338092    -1.4262299     1.7445094
H           0.7317108    -2.1832581     1.0087760
H           6.9554625     1.4828456     0.2388087
H           5.0475278     2.0061590     1.7476610
H           2.8453042     0.9252491     1.4040150
H           4.4125158    -1.2175049    -1.9688868
H           6.6367661    -0.1421632    -1.6228744
23
078_C12H10O_0-5-6-10 (75,) energy =    -538.5122634
C           0.5318435     0.8899680    -0.6269270
C          -0.7100916     1.2699406    -0.1177865
C          -1.3778193     0.4528079     0.7981730
C          -0.7980957    -0.7500828     1.2056475
C           0.4473970    -1.1369716     0.7070074
C           1.1042393    -0.3123521    -0.2056480
O           2.2954521    -0.7537491    -0.7614086
C           5.9996490     0.9102924     0.1957626
C           4.8883241     1.2424290     0.9700410
C           3.6279489     0.7137377     0.6803763
C           3.4875000    -0.1562327    -0.4040839
C           4.5947597    -0.4979385    -1.1878293
C           5.8444233     0.0352937    -0.8834336
H           1.0583588     1.5078526    -1.3478011
H          -1.1601052     2.2035576    -0.4444039
H          -2.3469185     0.7507054     1.1882539
H          -1.3143983    -1.3919698     1.9142599
H           0.9137466    -2.0702746     1.0066120
H           6.9753328     1.3264984     0.4290404
H           4.9953144     1.9185491     1.8143682
H           2.7690586     0.9717724     1.2898311
H           4.4544143    -1.1776630    -2.0224733
H           6.7013342    -0.2331396    -1.4956849
23
078_C12H10O_0-5-6-10 (90,) energy =    -538.5121404
C           0.3974009     0.9215627    -0.7341799
C          -0.8307134     1.2339826    -0.1492554
C          -1.3623641     0.4178413     0.8519122
C          -0.6626548    -0.7170205     1.2679630
C           0.5667691    -1.0377167     0.6898652
C           1.0877986    -0.2137396    -0.3079929
O           2.2675518    -0.5759547    -0.9420034
C           6.0090448     0.7929027     0.2973198
C           4.8759528     1.1860897     1.0083012
C           3.6029728     0.7523637     0.6282729
C           3.4731197    -0.0865633    -0.4813751
C           4.6025236    -0.4883229    -1.2032012
C           5.8631989    -0.0473544    -0.8107258
H           0.8232311     1.5382254    -1.5196456
H          -1.3739320     2.1148865    -0.4804327
H          -2.3199063     0.6628366     1.3026938
H          -1.0744884    -1.3580208     2.0427200
H           1.1225277    -1.9194350     0.9935354
H           6.9940428     1.1353938     0.6007368
H           4.9742743     1.8387005     1.8719861
H           2.7268037     1.0619938     1.1867539
H           4.4695832    -1.1407271    -2.0605509
H           6.7369347    -0.3625605    -1.3750799
23
078_C12H10O_0-5-6-10 (105,) energy =    -538.5121980
C           0.2629355     0.9493249    -0.8167427
C          -0.9599863     1.1737857    -0.1815878
C          -1.3617527     0.3617027     0.8807928
C          -0.5377974    -0.6831865     1.3067903
C           0.6840262    -0.9189892     0.6758055
C           1.0756420    -0.0977703    -0.3833565
O           2.2483046    -0.3642498    -1.0743050
C           6.0189527     0.6658382     0.3847950
C           4.8856828     1.1333671     1.0493365
C           3.6036951     0.8081057     0.5987025
C           3.4646640     0.0003567    -0.5329435
C           4.5938460    -0.4745124    -1.2088750
C           5.8639654    -0.1388324    -0.7479574
H           0.5924327     1.5655223    -1.6474546
H          -1.5983991     1.9856231    -0.5193326
H          -2.3140569     0.5391823     1.3724175
H          -0.8484673    -1.3218795     2.1292037
H           1.3322986    -1.7321839     0.9874302
H           7.0111715     0.9243161     0.7429758
H           4.9913262     1.7622683     1.9295744
H           2.7270587     1.1789189     1.1179103
H           4.4536596    -1.0988917    -2.0857196
H           6.7377125    -0.5106272    -1.2766928
23
078_C12H10O_0-5-6-10 (120,) energy =    -538.5124446
C           0.1474624     0.9749259    -0.8777815
C          -1.0777209     1.0977699    -0.2196976
C          -1.3692719     0.2934502     0.8833451
C          -0.4309443    -0.6432436     1.3249634
C           0.7927883    -0.7806282     0.6700935
C           1.0743832     0.0343431    -0.4296362
O           2.2434430    -0.1249188    -1.1556036
C           6.0374082     0.5274515     0.4515260
C           4.9265586     1.0789225     1.0904040
C           3.6382180     0.8743126     0.5915650
C           3.4685323     0.1008489    -0.5601188
C           4.5742061    -0.4561525    -1.2102635
C           5.8530009    -0.2383682    -0.7029644
H           0.3941654     1.5892266    -1.7379823
H          -1.8028832     1.8272004    -0.5701848
H          -2.3224539     0.3928076     1.3947582
H          -0.6543521    -1.2770960     2.1789261
H           1.5257329    -1.5115685     0.9972404
H           7.0354547     0.6925485     0.8468297
H           5.0566759     1.6813394     1.9857143
H           2.7786385     1.3118816     1.0872374
H           4.4106777    -1.0495440    -2.1043775
H           6.7091719    -0.6735927    -1.2115911
23
078_C12H10O_0-5-6-10 (135,) energy =    -538.5126831
C           0.0465061     0.9809513    -0.9313855
C          -1.1858583     0.9924724    -0.2770575
C          -1.3897047     0.2034477     0.8565554
C          -0.3537194    -0.6066504     1.3279913
C           0.8797337    -0.6345572     0.6771528
C           1.0735998     0.1664466    -0.4520281
O           2.2433110     0.1268448    -1.1885811
C           6.0498183     0.3976333     0.4928887
C           4.9801694     1.0328780     1.1259116
C           3.6888959     0.9496891     0.6024518
C           3.4729806     0.2122434    -0.5655622
C           4.5362735    -0.4266991    -1.2088742
C           5.8213936    -0.3285143    -0.6784594
H           0.2266795     1.5876843    -1.8131119
H          -1.9852368     1.6251994    -0.6532910
H          -2.3479458     0.2172433     1.3678336
H          -0.5063789    -1.2298888     2.2051055
H           1.6842206    -1.2701831     1.0331894
H           7.0514354     0.4689579     0.9068101
H           5.1475992     1.6070413     2.0334195
H           2.8604679     1.4526295     1.0897482
H           4.3375276    -0.9876474    -2.1166645
H           6.6458366    -0.8265137    -1.1817604
23
078_C12H10O_0-5-6-10 (150,) energy =    -538.5127060
C          -0.0290628     0.9832290    -0.9682376
C          -1.2648968     0.8716659    -0.3333099
C          -1.4024627     0.0908889     0.8168563
C          -0.2918350    -0.5865782     1.3230307
C           0.9503985    -0.4907088     0.6939327
C           1.0759595     0.3029558    -0.4502072
O           2.2477849     0.4011451    -1.1748429
C           6.0541880     0.2732050     0.5215133
C           5.0474971     1.0051707     1.1552951
C           3.7582344     1.0487286     0.6240996
C           3.4788973     0.3405900    -0.5487873
C           4.4771611    -0.3934641    -1.1917804
C           5.7642548    -0.4210349    -0.6548126
H           0.0988425     1.5858211    -1.8619629
H          -2.1224591     1.4020968    -0.7385429
H          -2.3657838     0.0094772     1.3118969
H          -0.3890006    -1.2039954     2.2121964
H           1.8101980    -1.0267789     1.0814311
H           7.0562581     0.2466324     0.9397478
H           5.2657743     1.5557378     2.0665369
H           2.9764502     1.6257756     1.1072173
H           4.2306298    -0.9266812    -2.1044992
H           6.5405147    -0.9918789    -1.1572535
23
078_C12H10O_0-5-6-10 (165,) energy =    -538.5124462
C          -0.0744627     0.9934375    -0.9910843
C          -1.3122871     0.7506912    -0.4009116
C          -1.4068966    -0.0351598     0.7510050
C          -0.2474778    -0.5811209     1.3018735
C           1.0011457    -0.3504000     0.7198961
C           1.0818761     0.4461500    -0.4257796
O           2.2559562     0.7003797    -1.1058030
C           6.0473406     0.1433768     0.5354012
C           5.1403962     0.9958201     1.1703682
C           3.8581042     1.1772767     0.6523632
C           3.4850590     0.4880488    -0.5050314
C           4.3817690    -0.3650693    -1.1480034
C           5.6653012    -0.5316091    -0.6252948
H           0.0190605     1.6011603    -1.8856275
H          -2.2070364     1.1801284    -0.8438000
H          -2.3730433    -0.2207361     1.2111142
H          -0.3076658    -1.2008876     2.1927627
H           1.8968934    -0.7868811     1.1474311
H           7.0460436     0.0098877     0.9412466
H           5.4337382     1.5311358     2.0694465
H           3.1502405     1.8469698     1.1306821
H           4.0645342    -0.8791471    -2.0497885
H           6.3656432    -1.1937596    -1.1271426
23
078_C12H10O_0-5-6-10 (180,) energy =    -538.5121408
C          -0.0983031     1.0728726    -0.9493480
C          -1.3242031     0.6205156    -0.4694467
C          -1.3802848    -0.2868760     0.5928488
C          -0.1928179    -0.7359257     1.1692660
C           1.0464147    -0.2921247     0.6999308
C           1.0863523     0.6147292    -0.3622260
O           2.2518964     1.1173426    -0.9045394
C           6.0133219     0.0300885     0.5280053
C           5.3392254     1.1179920     1.0874796
C           4.0679905     1.4692673     0.6305875
C           3.4787244     0.7227173    -0.3902937
C           4.1423005    -0.3650895    -0.9584003
C           5.4133782    -0.7081436    -0.4946500
H          -0.0347884     1.7769854    -1.7731066
H          -2.2412000     0.9796975    -0.9291910
H          -2.3383541    -0.6379816     0.9648734
H          -0.2214073    -1.4413952     1.9957064
H           1.9654042    -0.6461334     1.1533611
H           7.0037016    -0.2385143     0.8845370
H           5.8040015     1.6987709     1.8795839
H           3.5311123     2.3162634     1.0464027
H           3.6621784    -0.9210580    -1.7577122
H           5.9359009    -1.5520958    -0.9367555
