16
297_C7H7FO_0-4-11-9 (-165,) energy =    -445.9989384
C           1.7397388    -1.5337204    -0.5059623
H           2.0127379    -1.5491589    -1.5696304
H           0.6670150    -1.7115756    -0.4114225
H           2.2916988    -2.3238031     0.0195696
O           1.9747082    -0.2619559     0.0794683
C           5.8547681     1.1375116     0.7100342
H           6.8510054     1.5273331     0.8949577
C           4.7497837     1.7295447     1.3321161
H           4.8544634     2.5740321     2.0058705
C           3.4837709     1.2242911     1.0945552
F           2.4151618     1.7854205     1.6942311
C           3.2684213     0.1346937     0.2330755
C           4.3805895    -0.4522890    -0.3775882
H           4.2508228    -1.2984880    -1.0431081
C           5.6648946     0.0511929    -0.1392272
H           6.5154860    -0.4177578    -0.6255286
16
297_C7H7FO_0-4-11-9 (-150,) energy =    -445.9976893
C           1.7336842    -1.5439726    -0.4537166
H           2.0298326    -1.7499338    -1.4909309
H           0.6564808    -1.6949788    -0.3590740
H           2.2642912    -2.2322488     0.2161802
O           1.9708925    -0.1893722    -0.0922799
C           5.8480865     1.1120163     0.7424118
H           6.8442974     1.4743471     0.9771265
C           4.7350954     1.6889273     1.3622581
H           4.8331744     2.4926832     2.0850607
C           3.4680575     1.2161676     1.0625918
F           2.3930351     1.7613462     1.6645272
C           3.2635926     0.1824599     0.1344208
C           4.3849745    -0.3924073    -0.4710393
H           4.2567252    -1.2000736    -1.1839604
C           5.6686759     0.0737605    -0.1688720
H           6.5271825    -0.3830394    -0.6527885
16
297_C7H7FO_0-4-11-9 (-135,) energy =    -445.9962573
C           1.7174100    -1.5309699    -0.3730680
H           2.1269148    -1.9503939    -1.3013048
H           0.6294252    -1.6222895    -0.3974889
H           2.1156263    -2.0916804     0.4817203
O           1.9909884    -0.1387848    -0.2464655
C           5.8518411     1.0924063     0.7623900
H           6.8446857     1.4358158     1.0369206
C           4.7309173     1.6369675     1.3941843
H           4.8187531     2.3967027     2.1643664
C           3.4666832     1.1867856     1.0432780
F           2.3844315     1.7007257     1.6585643
C           3.2787719     0.2122198     0.0524641
C           4.4092532    -0.3282535    -0.5676883
H           4.2861383    -1.0860414    -1.3350695
C           5.6879313     0.1104125    -0.2141544
H           6.5548937    -0.3177295    -0.7090120
16
297_C7H7FO_0-4-11-9 (-120,) energy =    -445.9956099
C           1.6846077    -1.5161021    -0.2828981
H           2.3074227    -2.1409377    -0.9358616
H           0.6416873    -1.6051204    -0.5942993
H           1.7888701    -1.8657409     0.7524161
O           2.0131848    -0.1328598    -0.3925357
C           5.8387921     1.0777005     0.7687839
H           6.8243116     1.4162364     1.0744424
C           4.7062426     1.5672678     1.4225463
H           4.7779227     2.2797895     2.2381738
C           3.4502692     1.1250524     1.0282945
F           2.3557388     1.5867320     1.6628072
C           3.2878632     0.2100964    -0.0195515
C           4.4301457    -0.2677281    -0.6681759
H           4.3148016    -0.9643765    -1.4933845
C           5.6993225     0.1605321    -0.2741527
H           6.5772401    -0.2174626    -0.7900032
16
297_C7H7FO_0-4-11-9 (-105,) energy =    -445.9957285
C           1.6614156    -1.4926963    -0.2164895
H           2.3562456    -2.2386612    -0.6243968
H           0.6748308    -1.6354635    -0.6627457
H           1.5924363    -1.6247001     0.8713020
O           2.0627919    -0.1640351    -0.5489659
C           5.8285544     1.0601820     0.7780343
H           6.8008661     1.4013124     1.1211260
C           4.6751848     1.4866915     1.4396925
H           4.7180709     2.1529150     2.2954681
C           3.4365104     1.0434980     0.9940275
F           2.3191179     1.4403988     1.6333679
C           3.3149920     0.1880442    -0.1068481
C           4.4768703    -0.2267054    -0.7619644
H           4.3816021    -0.8747267    -1.6286556
C           5.7294651     0.2039192    -0.3203906
H           6.6252579    -0.1221358    -0.8408182
16
297_C7H7FO_0-4-11-9 (-90,) energy =    -445.9963785
C           1.6278293    -1.4502007    -0.1345698
H           2.3091461    -2.2866770    -0.3395546
H           0.6721945    -1.6289145    -0.6324019
H           1.4651864    -1.3733765     0.9480721
O           2.1353745    -0.2262799    -0.6680583
C           5.8366595     1.0529572     0.7813739
H           6.7935355     1.4082557     1.1524245
C           4.6632213     1.4036371     1.4536521
H           4.6754703     2.0254432     2.3431451
C           3.4462224     0.9454131     0.9681025
F           2.3068750     1.2666552     1.6147108
C           3.3639406     0.1430220    -0.1758097
C           4.5443353    -0.1978492    -0.8380139
H           4.4747912    -0.8051349    -1.7358630
C           5.7773876     0.2537421    -0.3615517
H           6.6889737    -0.0142261    -0.8876207
16
297_C7H7FO_0-4-11-9 (-75,) energy =    -445.9973227
C           1.5717200    -1.3764863    -0.0996537
H           2.2107307    -2.2689976    -0.0753700
H           0.6600559    -1.5973622    -0.6589963
H           1.3094850    -1.0870470     0.9242122
O           2.2152008    -0.3051325    -0.7948745
C           5.8351196     1.0726090     0.7698499
H           6.7730497     1.4489447     1.1673699
C           4.6400516     1.3518920     1.4379470
H           4.6166606     1.9408125     2.3493784
C           3.4474968     0.8713708     0.9164211
F           2.2857135     1.1383644     1.5534777
C           3.4087757     0.1029095    -0.2538228
C           4.6106666    -0.1660481    -0.9105515
H           4.5731554    -0.7472929    -1.8269794
C           5.8192298     0.3176031    -0.4037466
H           6.7463433     0.1031141    -0.9272405
16
297_C7H7FO_0-4-11-9 (-60,) energy =    -445.9977605
C           1.4938532    -1.3080498    -0.1064581
H           2.0879126    -2.1770555     0.2051504
H           0.6816980    -1.6398351    -0.7566677
H           1.0785502    -0.8141355     0.7763037
O           2.2826769    -0.4109377    -0.8945527
C           5.8286319     1.0898243     0.7345772
H           6.7510953     1.4884352     1.1460415
C           4.6234071     1.3020823     1.4070902
H           4.5740461     1.8643580     2.3342293
C           3.4478310     0.7964770     0.8700386
F           2.2789632     1.0300264     1.5131134
C           3.4347719     0.0571042    -0.3205850
C           4.6500256    -0.1437582    -0.9809401
H           4.6344583    -0.7072987    -1.9087921
C           5.8385970     0.3727480    -0.4629003
H           6.7720357     0.2075307    -0.9930023
16
297_C7H7FO_0-4-11-9 (-45,) energy =    -445.9978875
C           1.4420390    -1.2706285    -0.0596983
H           1.9749115    -1.9619491     0.6047404
H           0.8177263    -1.8421768    -0.7500607
H           0.8151260    -0.6046314     0.5383584
O           2.3583965    -0.5421070    -0.8822543
C           5.8493160     1.0978098     0.7339815
H           6.7617668     1.5260343     1.1376598
C           4.6543217     1.2160343     1.4444873
H           4.6005531     1.7355736     2.3960501
C           3.4891133     0.6739454     0.9187516
F           2.3319670     0.8301984     1.6085443
C           3.4777294    -0.0179564    -0.3004416
C           4.6851566    -0.1234797    -1.0003718
H           4.6729135    -0.6517020    -1.9487423
C           5.8585922     0.4337458    -0.4942991
H           6.7826511     0.3387128    -1.0570796
16
297_C7H7FO_0-4-11-9 (-30,) energy =    -445.9979668
C           1.3767328    -1.1941848    -0.1068759
H           1.7737306    -1.7789778     0.7308427
H           0.8106197    -1.8506481    -0.7712917
H           0.7222053    -0.4084504     0.2789149
O           2.4302610    -0.6603906    -0.9119801
C           5.8372475     1.1491053     0.7059275
H           6.7319594     1.6160221     1.1060477
C           4.6434469     1.2043764     1.4240074
H           4.5719371     1.7117486     2.3810258
C           3.4979393     0.6129819     0.9062974
F           2.3462512     0.7168744     1.6186248
C           3.5057707    -0.0678834    -0.3197590
C           4.7145754    -0.1097302    -1.0281385
H           4.7182183    -0.6318187    -1.9799231
C           5.8651070     0.4948238    -0.5278259
H           6.7869078     0.4452732    -1.1001439
16
297_C7H7FO_0-4-11-9 (-15,) energy =    -445.9978648
C           1.3486692    -1.1775369    -0.0958226
H           1.6150915    -1.7217290     0.8166327
H           0.7711118    -1.8304871    -0.7534237
H           0.7513816    -0.3004355     0.1674884
O           2.5076167    -0.8236932    -0.8513153
C           5.8395931     1.1844265     0.6915722
H           6.7180268     1.6989506     1.0685721
C           4.6636484     1.1732764     1.4389478
H           4.5899511     1.6730424     2.3997983
C           3.5372791     0.5183480     0.9549694
F           2.4093675     0.5564205     1.7132735
C           3.5455008    -0.1555495    -0.2755485
C           4.7390449    -0.1314482    -1.0130692
H           4.7444892    -0.6517428    -1.9658507
C           5.8691389     0.5303182    -0.5424931
H           6.7761576     0.5288759    -1.1400225
16
297_C7H7FO_0-4-11-9 (0,) energy =    -445.9977980
C           1.3160998    -1.1418512    -0.1217572
H           1.4339569    -1.6457694     0.8423708
H           0.7247430    -1.7689017    -0.7919979
H           0.8067028    -0.1852839     0.0293868
O           2.5681787    -0.9738727    -0.7863485
C           5.8138033     1.2312857     0.6701776
H           6.6708387     1.7961543     1.0235358
C           4.6564573     1.1636019     1.4426077
H           4.5772793     1.6638600     2.4027977
C           3.5578650     0.4407736     0.9919568
F           2.4556834     0.4101545     1.7883961
C           3.5724145    -0.2367051    -0.2367559
C           4.7480462    -0.1560671    -0.9995289
H           4.7595834    -0.6802648    -1.9501297
C           5.8525867     0.5648091    -0.5570941
H           6.7454017     0.6050251    -1.1743369
16
297_C7H7FO_0-4-11-9 (15,) energy =    -445.9978648
C           1.3154524    -1.0399755    -0.2858196
H           0.8252283    -0.6063109     0.5899700
H           0.8021690    -1.9591285    -0.5757399
H           1.2776224    -0.3240281    -1.1138829
O           2.6563380    -1.4396730    -0.0005097
C           5.8373229     1.1938072     0.6786312
H           6.6802181     1.8555211     0.8523330
C           4.5377255     1.6947930     0.7186361
H           4.3322235     2.7404570     0.9254863
C           3.4578384     0.8473494     0.5005590
F           2.2099421     1.3823654     0.5724766
C           3.6327290    -0.5168439     0.2234852
C           4.9491265    -1.0015679     0.1887626
H           5.0839017    -2.0575150    -0.0241698
C           6.0367189    -0.1637730     0.4162090
H           7.0422154    -0.5730837     0.3820340
16
297_C7H7FO_0-4-11-9 (30,) energy =    -445.9979668
C           1.3421878    -1.0511231    -0.3044692
H           0.7545568    -0.5424646     0.4640202
H           0.8408595    -1.9759040    -0.5982835
H           1.4399963    -0.3967464    -1.1783040
O           2.6222508    -1.4555793     0.1863511
C           5.8260913     1.1952904     0.6421509
H           6.6716750     1.8656819     0.7612316
C           4.5267413     1.6877184     0.7564225
H           4.3254413     2.7326468     0.9709622
C           3.4463968     0.8264365     0.6114821
F           2.1967131     1.3361987     0.7632147
C           3.6187745    -0.5359346     0.3267287
C           4.9325431    -1.0125131     0.2188079
H           5.0650710    -2.0684094     0.0043243
C           6.0237689    -0.1623302     0.3798573
H           7.0299649    -0.5614228     0.2903323
16
297_C7H7FO_0-4-11-9 (45,) energy =    -445.9978875
C           1.3818734    -1.0214488    -0.4038628
H           0.7535456    -0.3495986     0.1861078
H           0.8442920    -1.9522131    -0.5980736
H           1.6318388    -0.5410314    -1.3578399
O           2.5657836    -1.4010690     0.3041611
C           5.8230253     1.2066765     0.5836285
H           6.6785513     1.8706677     0.6616649
C           4.5344809     1.7123597     0.7589694
H           4.3534320     2.7590580     0.9824137
C           3.4450422     0.8564542     0.6666784
F           2.2037070     1.3613940     0.8748582
C           3.5956199    -0.5062474     0.3740019
C           4.8957981    -0.9959203     0.2046654
H           5.0112984    -2.0532208    -0.0129363
C           6.0000267    -0.1520585     0.3148353
H           6.9988427    -0.5567142     0.1797112
16
297_C7H7FO_0-4-11-9 (60,) energy =    -445.9977605
C           1.4360718    -1.0687490    -0.4369743
H           0.9189999    -0.1533342    -0.1363938
H           0.7480362    -1.9146079    -0.3771411
H           1.7952308    -0.9648507    -1.4691503
O           2.5171597    -1.3821280     0.4468744
C           5.8017218     1.2012612     0.5806718
H           6.6602955     1.8644880     0.6266466
C           4.5272018     1.7005219     0.8567725
H           4.3628380     2.7391104     1.1260236
C           3.4362861     0.8442731     0.8040322
F           2.2067801     1.3289704     1.1002179
C           3.5711003    -0.5075545     0.4593375
C           4.8543765    -0.9901478     0.1881130
H           4.9563186    -2.0403827    -0.0675116
C           5.9638264    -0.1459394     0.2535284
H           6.9528783    -0.5414928     0.0415698
16
297_C7H7FO_0-4-11-9 (75,) energy =    -445.9973227
C           1.4982078    -1.0720283    -0.5201714
H           1.0631665    -0.0668736    -0.4848607
H           0.7121992    -1.8133364    -0.3606895
H           1.9613352    -1.2360675    -1.5020599
O           2.4471489    -1.2658193     0.5320426
C           5.7972180     1.2295649     0.5530777
H           6.6701586     1.8750689     0.5788220
C           4.5443597     1.7481947     0.8905822
H           4.4128134     2.7850600     1.1833071
C           3.4377266     0.9118097     0.8605756
F           2.2218239     1.4029464     1.1880395
C           3.5385712    -0.4346894     0.4887240
C           4.7971088    -0.9382575     0.1560459
H           4.8725202    -1.9871915    -0.1144043
C           5.9229408    -0.1119571     0.1895838
H           6.8964093    -0.5184322    -0.0687338
16
297_C7H7FO_0-4-11-9 (90,) energy =    -445.9963785
C           1.5479617    -1.1194186    -0.5914435
H           1.1607674    -0.1125570    -0.7933798
H           0.7127424    -1.7968646    -0.4004232
H           2.1124104    -1.4718491    -1.4649961
O           2.3547798    -1.1350216     0.5871129
C           5.7929072     1.2341460     0.5311284
H           6.6865765     1.8512298     0.5406000
C           4.5715127     1.7834463     0.9290674
H           4.4844936     2.8163923     1.2506891
C           3.4369359     0.9838513     0.9150207
F           2.2492717     1.5052063     1.2852285
C           3.4844862    -0.3562665     0.5138225
C           4.7118953    -0.8918571     0.1205696
H           4.7481145    -1.9371843    -0.1722517
C           5.8628579    -0.1002724     0.1274316
H           6.8132814    -0.5290925    -0.1764650
16
297_C7H7FO_0-4-11-9 (105,) energy =    -445.9957285
C           1.5917293    -1.2040874    -0.6151130
H           1.2593582    -0.2451962    -1.0340768
H           0.7210325    -1.8268316    -0.3984252
H           2.2295269    -1.7138279    -1.3492926
O           2.2684039    -1.0156484     0.6272986
C           5.7870484     1.2320694     0.5406367
H           6.6995271     1.8210124     0.5414496
C           4.5996664     1.7994436     1.0077279
H           4.5568936     2.8204418     1.3734849
C           3.4377443     1.0383617     1.0011305
F           2.2851241     1.5811645     1.4389478
C           3.4292841    -0.2853444     0.5470098
C           4.6252839    -0.8414108     0.0870849
H           4.6231518    -1.8751751    -0.2468139
C           5.7994530    -0.0859665     0.0800174
H           6.7239791    -0.5310227    -0.2760417
16
297_C7H7FO_0-4-11-9 (120,) energy =    -445.9956099
C           1.6251322    -1.2697834    -0.6231065
H           1.4355628    -0.4024459    -1.2686934
H           0.6787394    -1.7585947    -0.3823118
H           2.2685709    -1.9800318    -1.1580956
O           2.1906458    -0.8678779     0.6226900
C           5.8018165     1.2308260     0.5572985
H           6.7349798     1.7862097     0.5634445
C           4.6464789     1.8147753     1.0806990
H           4.6479338     2.8181486     1.4945990
C           3.4565351     1.0990803     1.0641793
F           2.3375094     1.6622064     1.5585698
C           3.3871814    -0.2012737     0.5486490
C           4.5526257    -0.7750291     0.0325249
H           4.5139647    -1.7892647    -0.3540294
C           5.7530326    -0.0619419     0.0331441
H           6.6509001    -0.5225630    -0.3685813
16
297_C7H7FO_0-4-11-9 (135,) energy =    -445.9962573
C           1.6745029    -1.3532672    -0.6185087
H           1.7735621    -0.6749496    -1.4750762
H           0.6199098    -1.5828883    -0.4519126
H           2.2083608    -2.2877157    -0.8353864
O           2.1355113    -0.7373817     0.5803278
C           5.8181832     1.2317860     0.5698940
H           6.7661754     1.7609608     0.5878487
C           4.6879066     1.8150790     1.1481893
H           4.7227866     2.7941343     1.6154448
C           3.4789836     1.1358131     1.1136923
F           2.3845866     1.7000544     1.6595006
C           3.3625987    -0.1349908     0.5320448
C           4.5001054    -0.7045529    -0.0479257
H           4.4310175    -1.6861094    -0.5062350
C           5.7204392    -0.0242397    -0.0281553
H           6.5948981    -0.4834248    -0.4801333
16
297_C7H7FO_0-4-11-9 (150,) energy =    -445.9976893
C           1.7061513    -1.4299691    -0.6111794
H           1.9532563    -0.9438664    -1.5633732
H           0.6254158    -1.5663308    -0.5367254
H           2.1903186    -2.4148673    -0.5725227
O           2.0732974    -0.6135311     0.4935737
C           5.8222621     1.2189673     0.5947227
H           6.7855289     1.7177595     0.6409282
C           4.7075540     1.8029466     1.2047873
H           4.7701035     2.7538797     1.7243064
C           3.4807417     1.1635871     1.1352231
F           2.4013743     1.7267349     1.7123274
C           3.3247437    -0.0708328     0.4842758
C           4.4446055    -0.6393875    -0.1298980
H           4.3502419    -1.5873013    -0.6491129
C           5.6857863     0.0028736    -0.0709266
H           6.5449975    -0.4568271    -0.5508283
16
297_C7H7FO_0-4-11-9 (165,) energy =    -445.9989384
C           1.7253893    -1.4742983    -0.5880316
H           2.0088579    -1.1523158    -1.5985003
H           0.6446162    -1.6188139    -0.5395389
H           2.2243211    -2.4255316    -0.3591667
O           2.0265264    -0.4765896     0.3759284
C           5.8401111     1.1981914     0.6262387
H           6.8190678     1.6595808     0.7123203
C           4.7350606     1.7904953     1.2479450
H           4.8216008     2.7100887     1.8179633
C           3.4899763     1.1985653     1.1300953
F           2.4198805     1.7658615     1.7212571
C           3.2994215     0.0062841     0.4104429
C           4.4096286    -0.5725705    -0.2114454
H           4.2968545    -1.4891352    -0.7797765
C           5.6718182     0.0225053    -0.0995892
H           6.5219823    -0.4446658    -0.5883446
16
297_C7H7FO_0-4-11-9 (180,) energy =    -445.9994082
C           1.7209334    -1.5153718    -0.5532407
H           2.0012770    -1.3553185    -1.6028381
H           0.6452518    -1.6877348    -0.4888809
H           2.2536493    -2.3947202    -0.1674889
O           1.9754056    -0.3639716     0.2357454
C           5.8316226     1.1682925     0.6713856
H           6.8213020     1.5936408     0.8064441
C           4.7281069     1.7625678     1.2943707
H           4.8267660     2.6462522     1.9168439
C           3.4704191     1.2145995     1.1173478
F           2.4024851     1.7807418     1.7137205
C           3.2620811     0.0712503     0.3261347
C           4.3718262    -0.5135732    -0.2912275
H           4.2490201    -1.3960520    -0.9088240
C           5.6478080     0.0358772    -0.1163354
H           6.4967886    -0.4338359    -0.6047603
