24
342_C10H12FN_0-6-19-17 (-165,) energy =    -542.8712993
C           1.6026564    -1.4563339     0.1514388
H           2.2774661    -2.3120137     0.2870264
C           0.2779460    -1.8876402    -0.4949447
H          -0.5269074    -1.2061128    -0.1936111
H          -0.0146637    -2.9010913    -0.2038552
H           1.4545779    -0.9979280     1.1331166
N           2.1581936    -0.4903563    -0.8105499
C           1.4075883    -0.4686884    -2.0639919
H           2.0848864    -0.4621121    -2.9277942
H           0.7714371     0.4300940    -2.1400487
C           0.5533950    -1.7406542    -1.9984746
H           1.1305559    -2.5983901    -2.3640246
H          -0.3555733    -1.6633931    -2.6025306
C           5.1802777     2.3730338    -0.0114636
H           5.9547116     3.1046929     0.1959311
C           4.3888599     2.4641988    -1.1543307
H           4.5388919     3.2782337    -1.8584519
C           3.3918043     1.5241157    -1.4133038
H           2.7847804     1.6331671    -2.3046506
C           3.1393523     0.4424967    -0.5385287
C           3.9778624     0.3762632     0.5972024
F           3.8359112    -0.6605494     1.4708089
C           4.9622577     1.3096573     0.8680620
H           5.5566326     1.1767729     1.7668745
24
342_C10H12FN_0-6-19-17 (-150,) energy =    -542.8713744
C           1.5687749    -1.4193154     0.1955320
H           2.1792753    -2.2891661     0.4627981
C           0.2413313    -1.8405456    -0.4589137
H          -0.5473421    -1.1200020    -0.2104769
H          -0.0919712    -2.8268354    -0.1219130
H           1.4103005    -0.8378159     1.1105272
N           2.2434818    -0.6109559    -0.8422250
C           1.4448500    -0.5461896    -2.0646444
H           2.0917302    -0.5572952    -2.9502947
H           0.8343447     0.3735082    -2.1122448
C           0.5439295    -1.7797612    -1.9636222
H           1.0944379    -2.6731581    -2.2812859
H          -0.3533250    -1.6943003    -2.5839972
C           5.1214586     2.3724876     0.0433083
H           5.8629410     3.1307001     0.2748424
C           4.3086703     2.4825377    -1.0828023
H           4.4074963     3.3377823    -1.7458944
C           3.3516360     1.5094642    -1.3731909
H           2.7276179     1.6297693    -2.2513558
C           3.1739421     0.3750342    -0.5521523
C           4.0328135     0.2909185     0.5650467
F           3.9515015    -0.7987539     1.3772567
C           4.9731699     1.2576515     0.8727868
H           5.5898809     1.1109180     1.7541448
24
342_C10H12FN_0-6-19-17 (-135,) energy =    -542.8704114
C           1.5327011    -1.3434064     0.2133075
H           2.0920030    -2.1873190     0.6285742
C           0.2277362    -1.8022928    -0.4677451
H          -0.5702146    -1.0719990    -0.2881524
H          -0.1187345    -2.7686398    -0.0889578
H           1.3409704    -0.6415865     1.0352191
N           2.3141562    -0.6970115    -0.8698666
C           1.5104901    -0.6202654    -2.0899064
H           2.1560857    -0.6540170    -2.9750929
H           0.9142616     0.3090690    -2.1459637
C           0.5793800    -1.8265148    -1.9639920
H           1.1199197    -2.7451623    -2.2198016
H          -0.2967672    -1.7517734    -2.6153389
C           5.1266509     2.3331250     0.0697750
H           5.8541939     3.0992467     0.3195078
C           4.2608100     2.4928705    -1.0100568
H           4.3024539     3.3956736    -1.6133763
C           3.3202515     1.5096073    -1.3233540
H           2.6528096     1.6654698    -2.1634031
C           3.2275575     0.3158884    -0.5809059
C           4.1294439     0.1881755     0.4948732
F           4.0988649    -0.9509157     1.2354125
C           5.0518457     1.1632272     0.8308714
H           5.7098999     0.9833997     1.6753053
24
342_C10H12FN_0-6-19-17 (-120,) energy =    -542.8683661
C           1.2962284    -1.1147762     0.1865671
H           1.8180262    -1.7735871     0.8846898
C           0.1452766    -1.8288622    -0.5655598
H          -0.7857291    -1.2630385    -0.4520257
H          -0.0383230    -2.8353981    -0.1782759
H           0.9192180    -0.2551523     0.7617227
N           2.2281070    -0.6718583    -0.8776189
C           1.4830921    -0.6046532    -2.1335025
H           2.1721760    -0.6185905    -2.9848975
H           0.8601650     0.3064365    -2.2174176
C           0.5857463    -1.8397170    -2.0442413
H           1.1738823    -2.7367445    -2.2657330
H          -0.2569156    -1.8019337    -2.7414724
C           5.0599753     2.3210475     0.1262077
H           5.7950669     3.0738257     0.3945299
C           4.1595869     2.5424610    -0.9138202
H           4.1817204     3.4792343    -1.4638710
C           3.2096626     1.5746996    -1.2499467
H           2.5100926     1.7730722    -2.0547640
C           3.1522691     0.3408917    -0.5785059
C           4.0785186     0.1556775     0.4654597
F           4.0565936    -1.0159803     1.1478293
C           5.0114598     1.1124378     0.8268093
H           5.6950176     0.8921248     1.6407359
24
342_C10H12FN_0-6-19-17 (-105,) energy =    -542.8661708
C           1.2048133    -0.9027180     0.1760319
H           1.6469147    -1.2625751     1.1084132
C           0.2605420    -1.9256389    -0.4913281
H          -0.7858489    -1.6840257    -0.2812442
H           0.4443303    -2.9350069    -0.1120070
H           0.6702776     0.0391606     0.3928827
N           2.2561116    -0.6835527    -0.8346331
C           1.5482516    -0.6412054    -2.1149044
H           2.2560273    -0.7138434    -2.9470368
H           0.9647718     0.2901970    -2.2451898
C           0.5908578    -1.8382878    -2.0085942
H           1.0960577    -2.7500626    -2.3410796
H          -0.2990584    -1.7047229    -2.6311251
C           5.1421553     2.2647586     0.1538135
H           5.8929087     3.0024748     0.4212557
C           4.1977381     2.5390620    -0.8335738
H           4.2015499     3.5001673    -1.3402347
C           3.2293072     1.5890434    -1.1698045
H           2.4965886     1.8224564    -1.9351915
C           3.2041305     0.3270021    -0.5564871
C           4.1628495     0.0932937     0.4449502
F           4.1408036    -1.0957801     1.0905266
C           5.1186464     1.0286611     0.8059335
H           5.8328253     0.7749619     1.5829036
24
342_C10H12FN_0-6-19-17 (-90,) energy =    -542.8634801
C           1.3010577    -1.1316774     0.4187798
H           1.8779043    -1.5831969     1.2435040
C           0.3222888    -2.1689337    -0.1930271
H          -0.7179141    -1.8341362    -0.1383389
H           0.3862707    -3.1143198     0.3554587
H           0.7937474    -0.2477721     0.8219930
N           2.1698332    -0.7426892    -0.7062504
C           2.2509932    -1.8848909    -1.6224878
H           2.9053642    -2.6924803    -1.2593764
H           2.6270733    -1.5559666    -2.5974188
C           0.7913838    -2.3495102    -1.6579166
H           0.6858350    -3.3797458    -2.0124917
H           0.2155116    -1.6997325    -2.3251328
C           5.5684420     1.6375211     0.2058371
H           6.4339309     2.2539400     0.4313134
C           4.3353896     2.2252559    -0.0850406
H           4.2337166     3.3067336    -0.0907972
C           3.2364947     1.4231885    -0.3905439
H           2.2778448     1.8649671    -0.6468516
C           3.3240766     0.0224386    -0.3977004
C           4.5729884    -0.5291596    -0.0732652
F           4.7083528    -1.8776032    -0.0247445
C           5.6901780     0.2479819     0.2070667
H           6.6283987    -0.2467079     0.4379661
24
342_C10H12FN_0-6-19-17 (-75,) energy =    -542.8640500
C           1.2235779    -1.0323961     0.3917333
H           1.7012863    -1.4379512     1.2992585
C           0.2439318    -2.0670651    -0.2231592
H          -0.7787370    -1.6822266    -0.2782356
H           0.2163522    -2.9704842     0.3947387
H           0.7305174    -0.0960504     0.6755360
N           2.2097904    -0.7849527    -0.6752051
C           2.2975283    -2.0014528    -1.4879490
H           2.8566121    -2.8141493    -0.9999939
H           2.7863253    -1.7813809    -2.4428028
C           0.8195903    -2.3789667    -1.6258263
H           0.6772931    -3.4238262    -1.9195280
H           0.3463732    -1.7447163    -2.3827523
C           5.5608595     1.6728867     0.2047328
H           6.4122590     2.3123142     0.4184378
C           4.2795903     2.2138039     0.0698204
H           4.1248543     3.2844106     0.1699678
C           3.2000666     1.3855520    -0.2255774
H           2.2084240     1.8043684    -0.3715364
C           3.3453203    -0.0075955    -0.3613998
C           4.6455465    -0.5128607    -0.2020856
F           4.8630538    -1.8486418    -0.3059413
C           5.7434275     0.2990481     0.0580913
H           6.7194272    -0.1652444     0.1594687
24
342_C10H12FN_0-6-19-17 (-60,) energy =    -542.8655033
C           1.1093796    -0.9059126     0.2466498
H           1.4733084    -1.0462849     1.2751930
C           0.2715241    -2.1149984    -0.2312536
H          -0.8027113    -1.9074880    -0.2159183
H           0.4484443    -2.9747873     0.4248239
H           0.5225963     0.0217930     0.2346058
N           2.2244271    -0.8232299    -0.7181179
C           2.2877090    -2.0552881    -1.5110580
H           2.8345617    -2.8688251    -1.0127887
H           2.7797549    -1.8598829    -2.4697326
C           0.8073351    -2.4177329    -1.6431683
H           0.6522845    -3.4587530    -1.9438308
H           0.3275604    -1.7699467    -2.3857365
C           5.5891636     1.6074047     0.1756306
H           6.4454938     2.2386483     0.3929346
C           4.2956331     2.1346531     0.1617633
H           4.1340453     3.1907872     0.3591027
C           3.2081407     1.3188895    -0.1365339
H           2.2093511     1.7426958    -0.1841602
C           3.3539543    -0.0605264    -0.3915565
C           4.6710287    -0.5520852    -0.3598667
F           4.9024524    -1.8712080    -0.5917427
C           5.7721713     0.2530497    -0.0976224
H           6.7559050    -0.2060981    -0.0940116
24
342_C10H12FN_0-6-19-17 (-45,) energy =    -542.8677389
C           1.0196465    -0.7849612     0.1130338
H           1.2803471    -0.7177906     1.1781930
C           0.2385746    -2.0707194    -0.2202963
H          -0.8440528    -1.9118805    -0.2165469
H           0.4624368    -2.8488365     0.5190153
H           0.4265284     0.1075727    -0.1332674
N           2.2282039    -0.8564394    -0.7304776
C           2.2739993    -2.1291896    -1.4628572
H           2.8071163    -2.9183746    -0.9146435
H           2.7770909    -1.9954414    -2.4256446
C           0.7918237    -2.4857270    -1.5933726
H           0.6342439    -3.5451131    -1.8185395
H           0.3277308    -1.8929757    -2.3905951
C           5.6023650     1.5378747     0.2179212
H           6.4615750     2.1588276     0.4517944
C           4.3037480     2.0394240     0.3190195
H           4.1373751     3.0690008     0.6239996
C           3.2099558     1.2376465     0.0050180
H           2.2086019     1.6531719     0.0593765
C           3.3543777    -0.1123171    -0.3855768
C           4.6811379    -0.5775346    -0.4756543
F           4.9223913    -1.8638757    -0.8508217
C           5.7822727     0.2169651    -0.1912502
H           6.7689322    -0.2266372    -0.2829572
24
342_C10H12FN_0-6-19-17 (-30,) energy =    -542.8698480
C           0.9931617    -0.7041705     0.0354414
H           1.1598936    -0.5145548     1.1044805
C           0.2211495    -2.0097481    -0.2187459
H          -0.8603032    -1.8505876    -0.2671395
H           0.4182088    -2.7260907     0.5877700
H           0.4418313     0.1602480    -0.3659579
N           2.2670714    -0.8893132    -0.6739834
C           2.3078046    -2.1801907    -1.3744675
H           2.8236302    -2.9550870    -0.7896274
H           2.8313907    -2.0849940    -2.3299046
C           0.8244996    -2.5257822    -1.5339682
H           0.6608973    -3.5956791    -1.6952769
H           0.3992372    -1.9832181    -2.3869615
C           5.6041681     1.5591757     0.2517912
H           6.4558931     2.1914316     0.4820563
C           4.2992347     2.0090471     0.4503790
H           4.1175182     3.0091325     0.8346796
C           3.2114999     1.1939236     0.1456207
H           2.2061923     1.5771296     0.2845702
C           3.3732673    -0.1207139    -0.3490181
C           4.7092257    -0.5349724    -0.5362702
F           4.9660024    -1.7867086    -1.0096473
C           5.7986247     0.2723588    -0.2523970
H           6.7909435    -0.1339938    -0.4226440
24
342_C10H12FN_0-6-19-17 (-15,) energy =    -542.8710239
C           0.9916560    -0.7185140     0.0198694
H           1.0622965    -0.4951452     1.0925046
C           0.1724948    -1.9833706    -0.2703173
H          -0.8989182    -1.7766364    -0.3510892
H           0.3152850    -2.7154207     0.5335964
H           0.5372155     0.1607819    -0.4678296
N           2.3078607    -1.0225596    -0.5384173
C           2.2926969    -2.2274954    -1.3801944
H           2.7878421    -3.0724429    -0.8834893
H           2.8141206    -2.0526190    -2.3264240
C           0.7950351    -2.5020432    -1.5754134
H           0.5881520    -3.5599202    -1.7640798
H           0.4138806    -1.9269778    -2.4281233
C           5.6363807     1.5103751     0.1362242
H           6.4905302     2.1581189     0.3065240
C           4.3403058     1.9385847     0.4175262
H           4.1682144     2.9376267     0.8090201
C           3.2462056     1.1045670     0.1909986
H           2.2484857     1.4727563     0.4025316
C           3.3992386    -0.2067742    -0.3139406
C           4.7291667    -0.6049059    -0.5736100
F           4.9680170    -1.8642793    -1.0363080
C           5.8204998     0.2204433    -0.3674511
H           6.8071148    -0.1722521    -0.5936780
24
342_C10H12FN_0-6-19-17 (0,) energy =    -542.8713906
C           0.9543796    -0.6468904     0.0858318
H           0.9340707    -0.3701946     1.1470963
C           0.0850860    -1.8682749    -0.2257360
H          -0.9696738    -1.6076708    -0.3552859
H           0.1574085    -2.5976143     0.5897491
H           0.6137033     0.2314112    -0.4909847
N           2.2949438    -1.0725719    -0.3121709
C           2.2411947    -2.2001918    -1.2654966
H           2.7169303    -3.0900789    -0.8370580
H           2.7708976    -1.9614908    -2.1934418
C           0.7373311    -2.4214989    -1.5012032
H           0.4980951    -3.4723727    -1.6906116
H           0.4029587    -1.8421736    -2.3703917
C           5.6131194     1.5354523     0.0968628
H           6.4667130     2.1975421     0.2027895
C           4.3315637     1.9514127     0.4506823
H           4.1702334     2.9533979     0.8391523
C           3.2364652     1.0991156     0.3070319
H           2.2517815     1.4581271     0.5831586
C           3.3752945    -0.2135885    -0.1956621
C           4.6943522    -0.6037604    -0.5161478
F           4.9218535    -1.8735770    -0.9536730
C           5.7852651     0.2376742    -0.3914459
H           6.7623171    -0.1480802    -0.6657897
24
342_C10H12FN_0-6-19-17 (15,) energy =    -542.8710233
C           0.8645872    -0.2624773    -0.0701134
H           0.7726278    -0.3820163     1.0229900
C          -0.0420414    -1.2609505    -0.8022237
H          -0.3121009    -0.8685289    -1.7899191
H          -0.9677067    -1.4620809    -0.2545963
H           0.6221675     0.7823564    -0.3044800
N           2.2065445    -0.6049005    -0.5376043
C           2.2353579    -1.8858266    -1.2584674
H           3.0605540    -2.5147830    -0.9101294
H           2.3688230    -1.7372368    -2.3382401
C           0.8604837    -2.4950476    -0.9506319
H           0.8966350    -3.0491664    -0.0046791
H           0.5278634    -3.1852171    -1.7319566
C           5.5529862     1.8344652     0.3571275
H           6.4123012     2.4569280     0.5857425
C           4.3447238     1.9986480     1.0318999
H           4.2499910     2.7555449     1.8059222
C           3.2459515     1.1919699     0.7384842
H           2.3250902     1.3312207     1.2938072
C           3.2998289     0.1910988    -0.2580917
C           4.5383077     0.0660041    -0.9252597
F           4.6676958    -0.8569519    -1.9195031
C           5.6393745     0.8506312    -0.6309157
H           6.5503259     0.6846442    -1.1978362
24
342_C10H12FN_0-6-19-17 (30,) energy =    -542.8698479
C           0.8657402    -0.3061750    -0.0649896
H           0.6567805    -0.3547938     1.0149391
C          -0.0323257    -1.2852979    -0.8393196
H          -0.2515908    -0.8857288    -1.8366944
H          -0.9864404    -1.4630222    -0.3340375
H           0.7187778     0.7366836    -0.3771803
N           2.2343044    -0.7573319    -0.3549960
C           2.2338103    -1.9564156    -1.2043176
H           3.0411146    -2.6348926    -0.9146429
H           2.3702646    -1.7136152    -2.2677746
C           0.8402727    -2.5436425    -0.9620602
H           0.8263941    -3.1108677    -0.0235723
H           0.5241009    -3.2120514    -1.7687355
C           5.5228147     1.8394708     0.3043113
H           6.3654546     2.5005041     0.4809518
C           4.3412763     1.9683705     1.0336009
H           4.2513991     2.7338624     1.7996405
C           3.2672509     1.1112949     0.8049208
H           2.3690744     1.2163716     1.4040653
C           3.3102169     0.0987088    -0.1810686
C           4.5241850     0.0021075    -0.8942294
F           4.6634698    -0.9438163    -1.8651751
C           5.6046916     0.8380993    -0.6643678
H           6.4965422     0.6932413    -1.2663716
24
342_C10H12FN_0-6-19-17 (45,) energy =    -542.8677389
C           0.8517218    -0.2523806    -0.1753021
H           0.5560504    -0.1739416     0.8808574
C          -0.0133971    -1.2941769    -0.9104632
H          -0.1970220    -0.9697464    -1.9415755
H          -0.9860749    -1.4395130    -0.4307734
H           0.7607121     0.7510337    -0.6134146
N           2.2301776    -0.7651797    -0.2937680
C           2.2623898    -1.9760609    -1.1251282
H           3.0658124    -2.6420209    -0.7950132
H           2.4253676    -1.7589191    -2.1899491
C           0.8630303    -2.5572545    -0.9127657
H           0.8068989    -3.0666612     0.0565946
H           0.5840564    -3.2730482    -1.6922656
C           5.5116049     1.8526671     0.3364889
H           6.3519282     2.5178495     0.5094764
C           4.3744806     1.9051237     1.1441765
H           4.3218812     2.6102085     1.9692787
C           3.3078685     1.0390938     0.9201668
H           2.4444850     1.0720958     1.5772683
C           3.3055910     0.1074633    -0.1418543
C           4.4723453     0.0868093    -0.9312183
F           4.5677924    -0.7825405    -1.9745674
C           5.5538381     0.9255989    -0.7042931
H           6.4105835     0.8437749    -1.3660904
24
342_C10H12FN_0-6-19-17 (60,) energy =    -542.8655032
C           0.8671944    -0.1880832    -0.3645475
H           0.5120860     0.1209728     0.6271704
C           0.0013818    -1.3290474    -0.9484452
H          -0.2149595    -1.1311675    -2.0043655
H          -0.9576469    -1.4285213    -0.4310773
H           0.8494043     0.7039903    -1.0079213
N           2.2241096    -0.7632269    -0.2701623
C           2.2889891    -2.0109992    -1.0379625
H           3.0886195    -2.6500708    -0.6485922
H           2.4756387    -1.8558279    -2.1104210
C           0.8865301    -2.5831076    -0.8232000
H           0.8071792    -3.0129604     0.1818903
H           0.6308144    -3.3602953    -1.5503575
C           5.5439055     1.7993237     0.3927921
H           6.3945478     2.4486501     0.5765422
C           4.4546043     1.7816719     1.2671003
H           4.4526727     2.4136048     2.1509239
C           3.3786329     0.9310717     1.0306634
H           2.5525198     0.8936361     1.7346496
C           3.3194709     0.0950834    -0.1036405
C           4.4320174     0.1496949    -0.9619167
F           4.4565946    -0.6210497    -2.0811774
C           5.5300590     0.9667038    -0.7248584
H           6.3491221     0.9473280    -1.4371240
24
342_C10H12FN_0-6-19-17 (75,) energy =    -542.8640498
C           0.9011587    -0.1007406    -0.5671737
H           0.5405074     0.4851408     0.2855271
C          -0.0172742    -1.3060783    -0.9015555
H          -0.4190967    -1.2015239    -1.9146401
H          -0.8711994    -1.3730728    -0.2208916
H           0.9740530     0.5855179    -1.4274003
N           2.2040761    -0.7120594    -0.2495587
C           2.3015015    -1.9648533    -1.0039729
H           3.1020788    -2.5893833    -0.5939018
H           2.5027192    -1.8158003    -2.0756188
C           0.9002006    -2.5487817    -0.8009803
H           0.8284448    -2.9975127     0.1953186
H           0.6536159    -3.3180831    -1.5396495
C           5.5213134     1.8492228     0.4454276
H           6.3703242     2.4983381     0.6384523
C           4.4842562     1.7362022     1.3750863
H           4.5230630     2.2929873     2.3071008
C           3.4121977     0.8838530     1.1245659
H           2.6229513     0.7610125     1.8608122
C           3.3118415     0.1435816    -0.0681158
C           4.3656399     0.2981110    -0.9828199
F           4.3336410    -0.3734862    -2.1620088
C           5.4627397     1.1159806    -0.7382298
H           6.2425854     1.1762711    -1.4909660
24
342_C10H12FN_0-6-19-17 (90,) energy =    -542.8634801
C           0.9452436    -0.1079086    -0.6878020
H           0.5231386     0.5540860     0.0769352
C           0.0255873    -1.3112900    -1.0258845
H          -0.2780455    -1.2679541    -2.0768905
H          -0.8891846    -1.3104926    -0.4256395
H           1.1277303     0.5045144    -1.5869287
N           2.1857149    -0.7265424    -0.1875045
C           2.3243794    -2.0347133    -0.8357070
H           3.0484883    -2.6481211    -0.2884276
H           2.6544178    -1.9716019    -1.8842031
C           0.8900353    -2.5672060    -0.7539052
H           0.6979456    -2.9509749     0.2534876
H           0.6994227    -3.3751986    -1.4673918
C           5.5207386     1.8356680     0.4129236
H           6.3742395     2.4871106     0.5773662
C           4.5874796     1.6191648     1.4290994
H           4.7107512     2.1000297     2.3952969
C           3.5060387     0.7663984     1.2111827
H           2.7870290     0.5649847     2.0000605
C           3.3101320     0.1223679    -0.0203472
C           4.2546345     0.3877920    -1.0237234
F           4.0957501    -0.1744599    -2.2474903
C           5.3560631     1.2107727    -0.8232111
H           6.0536621     1.3615598    -1.6410800
24
342_C10H12FN_0-6-19-17 (105,) energy =    -542.8661732
C           0.9170442    -0.2133086    -0.2987365
H           0.5351231     0.2917017     0.6062299
C           0.0645116    -1.4569256    -0.6316531
H          -0.0975538    -1.5460087    -1.7097222
H          -0.9201006    -1.3905747    -0.1587301
H           0.9491519     0.5215907    -1.1069693
N           2.2638550    -0.7634770    -0.0580230
C           2.0409946    -2.0048027     0.6847215
H           1.7230948    -1.8217633     1.7289738
H           2.9563806    -2.6046872     0.7118731
C           0.8917345    -2.6600056    -0.0962652
H           0.3033170    -3.3343527     0.5333638
H           1.2933999    -3.2462869    -0.9281474
C           5.1784967     2.0429429     1.2174433
H           5.9277500     2.7684984     1.5200294
C           4.6831179     1.1120021     2.1285642
H           5.0391949     1.1104893     3.1550522
C           3.7139810     0.1845189     1.7363432
H           3.3341118    -0.5282602     2.4608517
C           3.2445638     0.1367710     0.4143924
C           3.7564169     1.1016388    -0.4708907
F           3.2931558     1.1163431    -1.7425531
C           4.7027744     2.0413922    -0.0968956
H           5.0580733     2.7505478    -0.8377916
24
342_C10H12FN_0-6-19-17 (120,) energy =    -542.8683665
C           1.0821522    -0.2466360    -0.6624366
H           0.7308943     0.5874750    -0.0358458
C           0.0825455    -1.4301554    -0.6266857
H          -0.4009120    -1.5906451    -1.5948318
H          -0.7099249    -1.2312570     0.1028719
H           1.2388862     0.1433051    -1.6709704
N           2.3512633    -0.8052301    -0.1380260
C           2.0318331    -1.9950368     0.6490736
H           1.6503447    -1.7536776     1.6596587
H           2.9221941    -2.6218790     0.7677695
C           0.9243653    -2.6440758    -0.1814034
H           0.3461256    -3.3800689     0.3857899
H           1.3638619    -3.1482889    -1.0487158
C           5.2976878     1.9425998     1.1858067
H           6.0558638     2.6510644     1.5055824
C           4.8001202     0.9848517     2.0671784
H           5.1636114     0.9438260     3.0903217
C           3.8184528     0.0807437     1.6542202
H           3.4370188    -0.6486673     2.3605803
C           3.3279236     0.0834359     0.3365330
C           3.8555719     1.0658348    -0.5226302
F           3.4069754     1.1135471    -1.8017039
C           4.8118821     1.9840690    -0.1241912
H           5.1719964     2.7080863    -0.8483209
24
342_C10H12FN_0-6-19-17 (135,) energy =    -542.8704113
C           1.1311052    -0.3190690    -0.8145545
H           0.8244331     0.6729176    -0.4585161
C           0.0540968    -1.3874821    -0.5397085
H          -0.5790348    -1.5705879    -1.4132127
H          -0.5991746    -1.0646294     0.2796078
H           1.3497469    -0.2289040    -1.8829881
N           2.3314287    -0.8004458    -0.0870495
C           1.9981548    -1.9891216     0.6980775
H           1.6462240    -1.7389029     1.7157976
H           2.8762114    -2.6372091     0.8009108
C           0.8597304    -2.6216579    -0.1031020
H           0.2744919    -3.3334237     0.4871228
H           1.2633942    -3.1489803    -0.9751776
C           5.2199874     1.9762993     1.2985033
H           5.9614806     2.6923254     1.6392615
C           4.7997815     0.9343064     2.1224531
H           5.2095665     0.8311348     3.1235695
C           3.8394170     0.0201265     1.6847485
H           3.5243512    -0.7747422     2.3513641
C           3.2806310     0.1001806     0.3939333
C           3.7416816     1.1609420    -0.4118896
F           3.2514305     1.2769609    -1.6740920
C           4.6763372     2.0872155     0.0156151
H           4.9766380     2.8731388    -0.6703718
24
342_C10H12FN_0-6-19-17 (150,) energy =    -542.8713743
C           1.1549827    -0.3609948    -0.8844111
H           0.8251879     0.6632002    -0.6777438
C           0.0560694    -1.3945215    -0.5810865
H          -0.5543028    -1.6205145    -1.4607460
H          -0.6137624    -1.0149080     0.2000319
H           1.4640338    -0.3990613    -1.9350393
N           2.2734092    -0.7517958    -0.0000449
C           1.9429070    -1.9466609     0.7742398
H           1.5725255    -1.6960469     1.7845834
H           2.8266234    -2.5845466     0.8970926
C           0.8357169    -2.6072194    -0.0511852
H           0.2228824    -3.2918685     0.5428930
H           1.2742403    -3.1744629    -0.8806902
C           5.2312964     1.9703583     1.3456814
H           5.9901398     2.6701231     1.6815312
C           4.8653333     0.8763937     2.1268490
H           5.3385477     0.7122281     3.0912150
C           3.8841598    -0.0166590     1.6945009
H           3.6146634    -0.8521303     2.3304362
C           3.2325908     0.1412038     0.4522416
C           3.6490900     1.2487174    -0.3176544
F           3.0984579     1.4393328    -1.5482131
C           4.6079761     2.1503452     0.1080055
H           4.8644292     2.9748142    -0.5501127
24
342_C10H12FN_0-6-19-17 (165,) energy =    -542.8713001
C           1.7295835    -1.8537481     0.3453092
H           2.5728451    -2.4472660     0.7099124
C           0.7970062    -2.6684093    -0.5635902
H           0.0174300    -3.1887102     0.0012220
H           1.3731523    -3.4232631    -1.1125771
H           1.1958001    -1.4677739     1.2235976
N           2.1869685    -0.7558628    -0.5225722
C           1.4578827    -0.7147873    -1.7883363
H           2.0713289    -1.0974518    -2.6222179
H           1.1689652     0.3134833    -2.0413637
C           0.2447436    -1.6189190    -1.5385387
H          -0.1518505    -2.0494674    -2.4629236
H          -0.5581763    -1.0434568    -1.0624193
C           5.5752953     1.7038420     0.1419600
H           6.4423864     2.3332773     0.3152267
C           4.9510727     1.6625681    -1.1029752
H           5.3304507     2.2644082    -1.9244646
C           3.8401516     0.8485669    -1.3214569
H           3.3867704     0.8313272    -2.3058246
C           3.2960095     0.0360808    -0.2999514
C           3.9463807     0.1242807     0.9514050
F           3.4610316    -0.5889244     2.0073770
C           5.0555772     0.9202135     1.1750481
H           5.4886526     0.9213208     2.1706477
24
342_C10H12FN_0-6-19-17 (180,) energy =    -542.8708893
C           1.6885407    -1.8197765     0.3461905
H           2.4519839    -2.4426240     0.8160225
C           0.7343047    -2.6290441    -0.5391386
H          -0.0805475    -3.0816813     0.0340751
H           1.2826987    -3.4349723    -1.0417336
H           1.1413345    -1.3039446     1.1495195
N           2.2904223    -0.8659376    -0.5963190
C           1.5070121    -0.7446434    -1.8280870
H           2.0742134    -1.1212147    -2.6942824
H           1.2541957     0.3037456    -2.0370285
C           0.2533311    -1.5937355    -1.5656781
H          -0.1450354    -2.0403221    -2.4815868
H          -0.5348991    -0.9698694    -1.1275819
C           5.5217229     1.7744703     0.1722190
H           6.3501981     2.4476782     0.3682027
C           4.9015255     1.7364645    -1.0745676
H           5.2433733     2.3863507    -1.8756777
C           3.8387617     0.8682191    -1.3200289
H           3.3923600     0.8542161    -2.3074142
C           3.3412068    -0.0101588    -0.3284593
C           3.9949317     0.0664975     0.9227700
F           3.5751984    -0.7235016     1.9523509
C           5.0520876     0.9229819     1.1746283
H           5.4884910     0.9109860     2.1687203
