23
332_C9H13N_0-4-15-16 (-165,) energy =    -405.5336952
C           1.1710984    -1.3396613    -0.0339002
H           0.9904332    -1.5039410     1.0297197
H           0.6941451    -2.1632999    -0.5739674
H           0.6663527    -0.4076689    -0.3326392
N           2.5879496    -1.3727776    -0.3564360
H           2.7584369    -1.7610234    -1.2705731
C           5.7639708     1.2119412     0.6935508
H           6.5919937     1.8678861     0.9455385
C           4.5763687     1.2580244     1.4149499
H           4.4842508     1.9541508     2.2458238
C           3.4806347     0.4330253     1.1275608
C           2.2804857     0.5380641     2.0513502
H           2.4663898     1.3114442     2.8029620
H           2.0953355    -0.3958828     2.5957879
H           1.3529828     0.8085254     1.5374866
C           3.5846451    -0.4729810     0.0388610
C           4.8124757    -0.5504318    -0.6798021
C           4.9803018    -1.5434531    -1.8072286
H           4.2940754    -1.3508901    -2.6470227
H           4.8026911    -2.5761800    -1.4759634
H           5.9951149    -1.4980382    -2.2125316
C           5.8709231     0.2925793    -0.3463261
H           6.7945412     0.2193818    -0.9164894
23
332_C9H13N_0-4-15-16 (-150,) energy =    -405.5352259
C           1.1550954    -1.2368951    -0.1251275
H           0.8115763    -1.3325526     0.9068975
H           0.6508735    -2.0138030    -0.7076417
H           0.8253190    -0.2595523    -0.5100960
N           2.5915749    -1.4508494    -0.2537838
H           2.8139826    -1.9623154    -1.0935578
C           5.6992394     1.2756880     0.6264059
H           6.5050144     1.9726455     0.8374974
C           4.5291870     1.2945609     1.3781020
H           4.4300640     2.0034560     2.1973796
C           3.4693916     0.4096742     1.1423145
C           2.3052729     0.4308464     2.1129995
H           2.5314235     1.1064196     2.9437999
H           2.1226792    -0.5613839     2.5427051
H           1.3646267     0.7732641     1.6675864
C           3.5815998    -0.5114560     0.0693024
C           4.7951597    -0.5695894    -0.6705262
C           4.9773756    -1.5866041    -1.7748048
H           4.2434954    -1.4631325    -2.5857930
H           4.8846955    -2.6191184    -1.4086169
H           5.9691769    -1.4914605    -2.2259440
C           5.8259451     0.3243872    -0.3825708
H           6.7412712     0.2707834    -0.9680203
23
332_C9H13N_0-4-15-16 (-135,) energy =    -405.5366770
C           1.1806440    -1.1682182    -0.2188397
H           0.7102775    -1.0934965     0.7641458
H           0.6715970    -1.9704924    -0.7615974
H           1.0018714    -0.2247582    -0.7574436
N           2.5994776    -1.5144039    -0.1274656
H           2.8639208    -2.1307116    -0.8819648
C           5.6665701     1.3056907     0.5868271
H           6.4589580     2.0273126     0.7638312
C           4.5196574     1.3057727     1.3748724
H           4.4257577     2.0220666     2.1883558
C           3.4845123     0.3841610     1.1795122
C           2.3369787     0.3637349     2.1651132
H           2.5926254     0.9546228     3.0503380
H           2.1211801    -0.6586777     2.4970277
H           1.4064275     0.7787401     1.7585290
C           3.5942124    -0.5482736     0.1192435
C           4.7784489    -0.5812366    -0.6624585
C           4.9509681    -1.6011955    -1.7662946
H           4.1585115    -1.5327770    -2.5255336
H           4.9486842    -2.6334278    -1.3870461
H           5.9043309    -1.4529311    -2.2816053
C           5.7921507     0.3460003    -0.4147443
H           6.6901834     0.3152925    -1.0279109
23
332_C9H13N_0-4-15-16 (-120,) energy =    -405.5376839
C           1.2340212    -1.1494358    -0.3521025
H           0.7470959    -0.6605970     0.4935316
H           0.6541982    -2.0470447    -0.5892289
H           1.1843442    -0.4648833    -1.2145810
N           2.5986285    -1.5619483    -0.0113701
H           2.9118852    -2.2687686    -0.6644849
C           5.6364204     1.3200303     0.5847026
H           6.4201030     2.0562276     0.7403307
C           4.5149402     1.2978277     1.4090794
H           4.4317358     2.0107044     2.2267433
C           3.4958391     0.3543685     1.2382780
C           2.3581795     0.3068240     2.2313277
H           2.6561834     0.7750707     3.1750962
H           2.0654393    -0.7283653     2.4384031
H           1.4630749     0.8377337     1.8800283
C           3.5976290    -0.5749245     0.1769620
C           4.7485926    -0.5772068    -0.6487739
C           4.9037309    -1.5866255    -1.7654996
H           4.0584198    -1.5642023    -2.4665372
H           4.9873224    -2.6173352    -1.3910831
H           5.8108174    -1.3851949    -2.3428857
C           5.7513013     0.3703576    -0.4279121
H           6.6293421     0.3655177    -1.0700455
23
332_C9H13N_0-4-15-16 (-105,) energy =    -405.5379280
C           1.3071191    -1.1314589    -0.4710947
H           0.8234886    -0.4152416     0.1979860
H           0.6408099    -1.9946645    -0.5702983
H           1.4113200    -0.6522366    -1.4586243
N           2.5796043    -1.5826566     0.1046915
H           2.9260281    -2.3674671    -0.4368761
C           5.6162298     1.3239499     0.5824587
H           6.3968095     2.0685116     0.7133252
C           4.5259210     1.2886184     1.4481329
H           4.4616276     2.0021108     2.2668722
C           3.5134200     0.3334715     1.3056295
C           2.3753028     0.2847982     2.2966404
H           2.6753611     0.7241033     3.2537223
H           2.0554903    -0.7482719     2.4662494
H           1.4959973     0.8448139     1.9493156
C           3.6002087    -0.5978574     0.2477377
C           4.7048681    -0.5722212    -0.6339375
C           4.8223153    -1.5724936    -1.7635630
H           3.9289014    -1.5844862    -2.4008998
H           4.9740283    -2.5989653    -1.3994966
H           5.6777441    -1.3336292    -2.4024932
C           5.7038840     0.3876703    -0.4456501
H           6.5544777     0.4043736    -1.1235287
23
332_C9H13N_0-4-15-16 (-90,) energy =    -405.5369694
C           1.4431512    -1.2845704    -0.8174464
H           0.9009111    -0.3909439    -0.4665008
H           0.7405525    -2.1232077    -0.8666737
H           1.7930680    -1.0819004    -1.8343635
N           2.5833564    -1.6661380     0.0276059
H           2.2257903    -1.9579168     0.9335804
C           5.5731445     1.2801331     0.5767849
H           6.3509928     2.0262430     0.7160769
C           4.5290085     1.1778613     1.4936323
H           4.4919214     1.8467028     2.3506819
C           3.5171055     0.2261487     1.3281374
C           2.4041685     0.1195166     2.3482959
H           2.4535095     0.9478147     3.0615424
H           2.4664671    -0.8091372     2.9337800
H           1.4108156     0.1418277     1.8844671
C           3.5664574    -0.6394962     0.2140918
C           4.6350158    -0.5626232    -0.7036906
C           4.7188592    -1.5151254    -1.8717479
H           4.0785812    -1.1972778    -2.7062737
H           4.3851715    -2.5150059    -1.5789427
H           5.7426909    -1.5745295    -2.2552254
C           5.6208737     0.4117019    -0.5113367
H           6.4455217     0.4737178    -1.2180074
23
332_C9H13N_0-4-15-16 (-75,) energy =    -405.5379825
C           1.5172869    -1.3747499    -0.9427578
H           0.9852797    -0.4159733    -0.8275855
H           0.7836477    -2.1869053    -0.9109752
H           1.9779449    -1.3843250    -1.9335181
N           2.5297884    -1.6162372     0.0918819
H           2.0638925    -1.7901090     0.9757199
C           5.5728388     1.2801972     0.5892401
H           6.3607130     2.0175530     0.7169559
C           4.5598953     1.1619330     1.5384495
H           4.5546609     1.8130779     2.4098098
C           3.5336936     0.2247252     1.3860265
C           2.4429918     0.1242152     2.4304087
H           2.5410140     0.9260538     3.1682795
H           2.4804662    -0.8246231     2.9850466
H           1.4401071     0.2025431     1.9912466
C           3.5375319    -0.6230360     0.2544073
C           4.5761868    -0.5299192    -0.6983568
C           4.6475527    -1.4762570    -1.8728445
H           4.0567521    -1.1245196    -2.7299310
H           4.2639699    -2.4637695    -1.5967065
H           5.6802424    -1.5840014    -2.2206564
C           5.5738128     0.4341014    -0.5168240
H           6.3754274     0.5022074    -1.2491823
23
332_C9H13N_0-4-15-16 (-60,) energy =    -405.5374974
C           1.5696290    -1.4859039    -1.0158954
H           1.1716559    -0.4794271    -1.2236508
H           0.7264535    -2.1585579    -0.8303869
H           2.0762473    -1.8404833    -1.9152246
N           2.4536806    -1.5313709     0.1515448
H           1.9018563    -1.5824266     0.9975599
C           5.5738067     1.2873479     0.6044477
H           6.3741360     2.0123488     0.7232236
C           4.5842250     1.1617494     1.5769254
H           4.6079861     1.7959301     2.4604363
C           3.5415873     0.2432720     1.4346115
C           2.4751564     0.1484766     2.5039425
H           2.6373403     0.9052855     3.2769875
H           2.4728020    -0.8281056     3.0095979
H           1.4658272     0.3064515     2.0996632
C           3.4989089    -0.5876389     0.2870593
C           4.5205790    -0.4932851    -0.6865093
C           4.5965962    -1.4419301    -1.8605819
H           3.9626618    -1.1327150    -2.7023171
H           4.2848296    -2.4508510    -1.5683796
H           5.6228125    -1.4977189    -2.2380299
C           5.5336882     0.4561275    -0.5110907
H           6.3193133     0.5209972    -1.2609504
23
332_C9H13N_0-4-15-16 (-45,) energy =    -405.5364308
C           1.6305232    -1.5896050    -1.0779039
H           1.4645888    -0.6364817    -1.6031041
H           0.6529030    -2.0120076    -0.8266018
H           2.1135409    -2.2817576    -1.7716922
N           2.3851329    -1.4306734     0.1637201
H           1.7672605    -1.3785854     0.9595629
C           5.5942117     1.2796623     0.6298044
H           6.4116807     1.9839400     0.7546463
C           4.6159354     1.1460364     1.6123250
H           4.6648149     1.7532217     2.5136506
C           3.5527087     0.2548671     1.4610815
C           2.5014965     0.1537570     2.5440123
H           2.7179422     0.8528189     3.3569440
H           2.4528910    -0.8508606     2.9884833
H           1.4945285     0.3928553     2.1718363
C           3.4694990    -0.5439594     0.2898741
C           4.4833865    -0.4466849    -0.6943988
C           4.5535678    -1.3718127    -1.8904566
H           3.8268887    -1.1281318    -2.6749130
H           4.3787566    -2.4131768    -1.5954313
H           5.5475696    -1.3187115    -2.3456876
C           5.5181418     0.4768018    -0.5039249
H           6.2944516     0.5436620    -1.2632229
23
332_C9H13N_0-4-15-16 (-30,) energy =    -405.5349424
C           1.6458018    -1.7065907    -1.0677553
H           1.4907414    -0.8627078    -1.7574823
H           0.6631763    -2.1155538    -0.8141351
H           2.1940209    -2.4879145    -1.5987524
N           2.2956421    -1.3192701     0.1764170
H           1.6295678    -1.1598659     0.9153891
C           5.6239016     1.2361536     0.6784065
H           6.4679763     1.9051349     0.8181278
C           4.6370014     1.1199243     1.6537968
H           4.7047109     1.7043105     2.5689069
C           3.5429738     0.2727599     1.4816012
C           2.4897838     0.1871642     2.5633603
H           2.7507384     0.8330513     3.4065340
H           2.3790827    -0.8332613     2.9573173
H           1.4976547     0.5076477     2.2101214
C           3.4270152    -0.5014774     0.2933100
C           4.4472222    -0.4185769    -0.6893927
C           4.5089591    -1.3047938    -1.9186204
H           3.7243742    -1.0968680    -2.6540527
H           4.4372960    -2.3666401    -1.6541620
H           5.4684977    -1.1627879    -2.4254472
C           5.5165539     0.4591767    -0.4700549
H           6.2951500     0.5144564    -1.2278655
23
332_C9H13N_0-4-15-16 (-15,) energy =    -405.5335274
C           1.6710509    -1.8217766    -1.0373368
H           1.4483518    -1.1121939    -1.8492526
H           0.7290615    -2.2945422    -0.7428544
H           2.3164748    -2.6078084    -1.4336475
N           2.2342870    -1.2017429     0.1490076
H           1.5283267    -0.9344797     0.8157834
C           5.6881532     1.1647312     0.7266533
H           6.5652090     1.7828738     0.8940480
C           4.6772099     1.0850915     1.6803356
H           4.7589214     1.6450832     2.6094588
C           3.5455863     0.2985506     1.4732752
C           2.4771291     0.2385394     2.5410691
H           2.7711043     0.8288564     3.4135683
H           2.2938318    -0.7893219     2.8843397
H           1.5114791     0.6411840     2.1964385
C           3.4054344    -0.4468593     0.2669214
C           4.4398425    -0.3853510    -0.7046032
C           4.4621619    -1.1872500    -1.9937372
H           3.6151320    -0.9786350    -2.6542514
H           4.4779988    -2.2683539    -1.8096608
H           5.3707105    -0.9482441    -2.5549870
C           5.5532325     0.4240602    -0.4422222
H           6.3406787     0.4633089    -1.1917882
23
332_C9H13N_0-4-15-16 (0,) energy =    -405.5327759
C           1.8126499    -2.1419970    -0.7979694
H           2.1536289    -2.0291301    -1.8292543
H           0.7213112    -2.2242606    -0.8259208
H           2.2063041    -3.0911766    -0.4039411
N           2.1422176    -0.9792352     0.0017641
H           1.4539311    -0.7666137     0.7048208
C           5.7146882     1.1552359     0.7248079
H           6.6198493     1.7220266     0.9217340
C           4.5013976     1.5225950     1.3004432
H           4.4490884     2.3897375     1.9553657
C           3.3337547     0.8043529     1.0510499
C           2.0346016     1.2531995     1.6792241
H           2.1795634     2.1764093     2.2474525
H           1.6240582     0.5103392     2.3816390
H           1.2592150     1.4447790     0.9244964
C           3.3657486    -0.3371355     0.1978364
C           4.6011171    -0.7251398    -0.3862103
C           4.7859628    -1.9208885    -1.3039130
H           4.3091601    -1.7852993    -2.2821954
H           4.4019037    -2.8519530    -0.8769762
H           5.8532706    -2.0728591    -1.4921383
C           5.7401345     0.0422383    -0.1080448
H           6.6810142    -0.2626869    -0.5612157
23
332_C9H13N_0-4-15-16 (15,) energy =    -405.5335274
C           1.8559757    -2.2174678    -0.6812101
H           2.1840442    -2.2645528    -1.7210359
H           0.7715962    -2.3649497    -0.6773204
H           2.3092748    -3.0593704    -0.1350220
N           2.1189820    -0.9186899    -0.0865088
H           1.4126998    -0.6541699     0.5812883
C           5.7279436     1.0891791     0.8134423
H           6.6441093     1.6165181     1.0622883
C           4.5049676     1.4904190     1.3437560
H           4.4564172     2.3440699     2.0163988
C           3.3246409     0.8173837     1.0340078
C           2.0192716     1.2945152     1.6287161
H           2.1754021     2.1971591     2.2262389
H           1.5603621     0.5478236     2.2960472
H           1.2769176     1.5347401     0.8548209
C           3.3523055    -0.3058984     0.1577157
C           4.5927851    -0.7114958    -0.4028519
C           4.7583867    -1.8322151    -1.4138140
H           4.2142485    -1.6342497    -2.3452299
H           4.4317394    -2.8086771    -1.0433432
H           5.8156017    -1.9290514    -1.6793207
C           5.7469124     0.0026028    -0.0537193
H           6.6918741    -0.3149645    -0.4891896
23
332_C9H13N_0-4-15-16 (30,) energy =    -405.5349424
C           1.8893017    -2.2657385    -0.5794962
H           2.1891336    -2.4773094    -1.6082370
H           0.8164316    -2.4676769    -0.5067110
H           2.4100586    -2.9721509     0.0851085
N           2.1004330    -0.8720018    -0.2145361
H           1.3469682    -0.5120971     0.3492938
C           5.7260047     1.0014384     0.8831621
H           6.6499717     1.4871612     1.1829593
C           4.4989161     1.4362238     1.3772094
H           4.4574707     2.2710418     2.0735423
C           3.3067594     0.8141505     1.0083983
C           1.9984761     1.3137613     1.5789438
H           2.1681758     2.1690149     2.2392109
H           1.4802032     0.5472502     2.1753175
H           1.3001968     1.6411988     0.7954159
C           3.3311220    -0.2820252     0.1013531
C           4.5730107    -0.7076866    -0.4370936
C           4.7064673    -1.7584828    -1.5225472
H           4.0716376    -1.5284661    -2.3866509
H           4.4541387    -2.7715401    -1.1913183
H           5.7403131    -1.7869565    -1.8804657
C           5.7405482    -0.0551991    -0.0209870
H           6.6878160    -0.3868721    -0.4407739
23
332_C9H13N_0-4-15-16 (45,) energy =    -405.5364308
C           1.9331740    -2.2844404    -0.4711108
H           2.2837745    -2.6728721    -1.4302374
H           0.8592403    -2.4858976    -0.4128060
H           2.4297811    -2.8511493     0.3314076
N           2.1277322    -0.8407465    -0.3518617
H           1.3430093    -0.4058839     0.1096030
C           5.7404650     0.9436658     0.9230415
H           6.6645610     1.4033566     1.2615366
C           4.5097758     1.3890959     1.3997214
H           4.4687163     2.2026315     2.1207796
C           3.3146136     0.8005676     0.9841131
C           2.0005412     1.3024830     1.5402642
H           2.1699227     2.1095417     2.2588464
H           1.4413698     0.5143586     2.0654829
H           1.3396357     1.7024480     0.7577009
C           3.3477149    -0.2651190     0.0460347
C           4.5915427    -0.6953491    -0.4774330
C           4.7014983    -1.7117691    -1.5937400
H           3.9808144    -1.5009405    -2.3926169
H           4.5308875    -2.7436910    -1.2638252
H           5.7032962    -1.6765721    -2.0333496
C           5.7629018    -0.0852109    -0.0132398
H           6.7140778    -0.4195116    -0.4221011
23
332_C9H13N_0-4-15-16 (60,) energy =    -405.5374974
C           1.9062475    -2.2586419    -0.3410592
H           2.5066942    -2.8284871    -1.0523411
H           0.8545464    -2.4529496    -0.5734192
H           2.1159974    -2.6462391     0.6690467
N           2.1427435    -0.8186324    -0.4713365
H           1.3456081    -0.3069396    -0.1169299
C           5.7373406     0.9117006     0.9323403
H           6.6592450     1.3578217     1.2947339
C           4.5050418     1.3429025     1.4184106
H           4.4627436     2.1286429     2.1695193
C           3.3107944     0.7722015     0.9722925
C           1.9925830     1.2550010     1.5370523
H           2.1595870     2.0007769     2.3197337
H           1.4078196     0.4390459     1.9836083
H           1.3575840     1.7296675     0.7749016
C           3.3530021    -0.2534631    -0.0051234
C           4.5976238    -0.6705692    -0.5318943
C           4.6932188    -1.6641552    -1.6667075
H           3.8778163    -1.5177653    -2.3837783
H           4.6488960    -2.7074865    -1.3268543
H           5.6420283    -1.5423883    -2.1992792
C           5.7689881    -0.0841767    -0.0393541
H           6.7231010    -0.4058250    -0.4515621
23
332_C9H13N_0-4-15-16 (75,) energy =    -405.5379825
C           1.8851779    -2.2192360    -0.2052226
H           2.6382584    -2.8996526    -0.6099534
H           0.9193690    -2.4988153    -0.6386754
H           1.8397647    -2.3766500     0.8850560
N           2.1894200    -0.8359897    -0.5899587
H           1.3919259    -0.2491619    -0.3706494
C           5.7393097     0.8978223     0.9229808
H           6.6532097     1.3460870     1.3032380
C           4.5005495     1.2976163     1.4196476
H           4.4472068     2.0591395     2.1945819
C           3.3151161     0.7256636     0.9481632
C           1.9845400     1.1754559     1.5118303
H           2.1336915     1.8600487     2.3521239
H           1.3830138     0.3330852     1.8770073
H           1.3749025     1.7110554     0.7696734
C           3.3810434    -0.2645827    -0.0589820
C           4.6306740    -0.6554745    -0.5889453
C           4.7236979    -1.6515656    -1.7199709
H           3.8662684    -1.5521093    -2.3933891
H           4.7390785    -2.6903939    -1.3622545
H           5.6429686    -1.4991610    -2.2950746
C           5.7937127    -0.0708821    -0.0759737
H           6.7553197    -0.3698208    -0.4877032
23
332_C9H13N_0-4-15-16 (90,) energy =    -405.5369694
C           1.8168571    -2.1423908    -0.0682543
H           2.5856862    -2.9007222    -0.2456582
H           0.8958155    -2.4799470    -0.5552024
H           1.6421850    -2.0919018     1.0192637
N           2.2353503    -0.8683801    -0.6695326
H           1.4638438    -0.2105702    -0.5931020
C           5.7443863     0.8868168     0.9200825
H           6.6496119     1.3407440     1.3146033
C           4.5002604     1.2433553     1.4361434
H           4.4347542     1.9774354     2.2362015
C           3.3249643     0.6664417     0.9432526
C           1.9831934     1.0847904     1.5048203
H           2.1145507     1.7249931     2.3823840
H           1.3739560     0.2259530     1.8107823
H           1.3905325     1.6585802     0.7777792
C           3.4127113    -0.2873399    -0.0937977
C           4.6655338    -0.6332050    -0.6423064
C           4.7633502    -1.6178259    -1.7823072
H           3.9340878    -1.4808937    -2.4826045
H           4.7149570    -2.6577460    -1.4306822
H           5.7109727    -1.5024364    -2.3185083
C           5.8194738    -0.0444326    -0.1131621
H           6.7868960    -0.3099677    -0.5337074
23
332_C9H13N_0-4-15-16 (105,) energy =    -405.5379280
C           1.6405750    -1.8969442     0.1974839
H           2.3234908    -2.7452883     0.3697173
H           0.7572835    -2.2624245    -0.3365135
H           1.3098606    -1.5314480     1.1729710
N           2.2395267    -0.8030970    -0.5765234
H           2.3793939    -1.1141277    -1.5319974
C           5.7964388     0.9100787     0.9437088
H           6.7064595     1.3577297     1.3339316
C           4.5649648     1.1986436     1.5264734
H           4.5124242     1.8852514     2.3687016
C           3.3786820     0.6421119     1.0357826
C           2.0538667     1.0217691     1.6526361
H           2.1184360     2.0013247     2.1377456
H           1.7310723     0.3051815     2.4205792
H           1.2690056     1.0554812     0.8903119
C           3.4453551    -0.2431702    -0.0623402
C           4.6903006    -0.5394098    -0.6628699
C           4.7788646    -1.4735219    -1.8502968
H           4.3008899    -1.0555517    -2.7480976
H           4.3024632    -2.4421346    -1.6518984
H           5.8236044    -1.6689644    -2.1098503
C           5.8499864     0.0519443    -0.1526706
H           6.8068487    -0.1751799    -0.6175762
23
332_C9H13N_0-4-15-16 (120,) energy =    -405.5376839
C           1.5272837    -1.8227017     0.2359199
H           2.1291644    -2.6327640     0.6791903
H           0.7521044    -2.2721638    -0.3927332
H           1.0235370    -1.2953032     1.0478595
N           2.3093544    -0.8989280    -0.5907719
H           2.5007970    -1.3264087    -1.4879295
C           5.8100723     0.9211783     0.9328161
H           6.7091989     1.3925601     1.3197706
C           4.5754624     1.1585737     1.5304676
H           4.5078331     1.8357865     2.3792900
C           3.4001098     0.5735147     1.0466222
C           2.0753689     0.9551796     1.6647473
H           2.1563839     1.9212437     2.1735859
H           1.7284270     0.2287155     2.4119889
H           1.2967471     1.0344952     0.8981636
C           3.4811072    -0.3081739    -0.0562863
C           4.7290702    -0.5330407    -0.6876321
C           4.8388983    -1.4385611    -1.8951239
H           4.3001931    -1.0415997    -2.7679099
H           4.4413818    -2.4434915    -1.6986492
H           5.8845461    -1.5550467    -2.1948042
C           5.8735289     0.0893900    -0.1827848
H           6.8289411    -0.0929892    -0.6698595
23
332_C9H13N_0-4-15-16 (135,) energy =    -405.5366770
C           1.4239663    -1.7269497     0.2689223
H           1.9110702    -2.3109066     1.0651109
H           0.8678189    -2.4207002    -0.3688682
H           0.6948801    -1.0595073     0.7337428
N           2.3766487    -1.0035203    -0.5738856
H           2.6087138    -1.5455502    -1.3932674
C           5.8271390     0.9368945     0.9086640
H           6.7183740     1.4316939     1.2839056
C           4.5962260     1.1299351     1.5283284
H           4.5230833     1.7985428     2.3834715
C           3.4272284     0.5151846     1.0650634
C           2.1094595     0.8851380     1.7095202
H           2.2338681     1.7770535     2.3317224
H           1.7037343     0.0962302     2.3548570
H           1.3498758     1.1101165     0.9515664
C           3.5127455    -0.3619325    -0.0435461
C           4.7566476    -0.5318698    -0.7057295
C           4.8706698    -1.4177684    -1.9266584
H           4.2601418    -1.0547770    -2.7661907
H           4.5589831    -2.4522910    -1.7223598
H           5.9056345    -1.4568142    -2.2784493
C           5.8904532     0.1199830    -0.2176440
H           6.8390984    -0.0269559    -0.7293862
23
332_C9H13N_0-4-15-16 (150,) energy =    -405.5352258
C           1.3362641    -1.6527694     0.2382802
H           1.6570564    -2.1669997     1.1573978
H           0.8110435    -2.3810158    -0.3869768
H           0.6139577    -0.8808371     0.5115708
N           2.4478810    -1.1215631    -0.5413337
H           2.7252501    -1.7605653    -1.2700006
C           5.8245029     0.9873760     0.8779810
H           6.7018686     1.5193918     1.2339970
C           4.5974359     1.1371834     1.5154186
H           4.5141663     1.8087138     2.3673043
C           3.4409486     0.4744987     1.0852866
C           2.1343338     0.8227670     1.7702853
H           2.2940607     1.6508067     2.4678686
H           1.7032752    -0.0036865     2.3461611
H           1.3768075     1.1492785     1.0477620
C           3.5387232    -0.4131390    -0.0169440
C           4.7787132    -0.5317200    -0.7038344
C           4.9017577    -1.4139814    -1.9258856
H           4.2230018    -1.1033504    -2.7331030
H           4.6824056    -2.4699714    -1.7061918
H           5.9187354    -1.3767976    -2.3266535
C           5.8957837     0.1643683    -0.2430724
H           6.8374585     0.0506174    -0.7757854
23
332_C9H13N_0-4-15-16 (165,) energy =    -405.5336949
C           1.2561990    -1.5659747     0.1573086
H           1.3805734    -2.0800500     1.1230775
H           0.7189223    -2.2441250    -0.5127045
H           0.6196767    -0.6928032     0.3109962
N           2.5098275    -1.2189532    -0.4913755
H           2.8276450    -1.9466970    -1.1115878
C           5.8092983     1.0739408     0.8212701
H           6.6700211     1.6528574     1.1427996
C           4.5908914     1.1859968     1.4816119
H           4.5019945     1.8695039     2.3232533
C           3.4532498     0.4597309     1.1049511
C           2.1714736     0.7467148     1.8661478
H           2.3720473     1.4799928     2.6533619
H           1.7425136    -0.1345937     2.3526295
H           1.3959274     1.1772460     1.2210283
C           3.5590747    -0.4433063     0.0138750
C           4.7949029    -0.5343825    -0.6893000
C           4.9283889    -1.4415084    -1.8912044
H           4.1954428    -1.1992800    -2.6734680
H           4.7904662    -2.5043287    -1.6369178
H           5.9241575    -1.3498731    -2.3341933
C           5.8926396     0.2159372    -0.2718339
H           6.8270821     0.1215132    -0.8208644
23
332_C9H13N_0-4-15-16 (180,) energy =    -405.5328094
C           1.2062844    -1.4615132     0.0560606
H           1.1872022    -1.6713527     1.1273966
H           0.7812143    -2.3334567    -0.4515226
H           0.5425920    -0.6062212    -0.1424993
N           2.5625711    -1.2941768    -0.4274907
H           2.6907464    -1.6122186    -1.3743006
C           5.8067470     1.1312820     0.7719978
H           6.6566371     1.7398521     1.0664567
C           4.6037722     1.2083836     1.4645761
H           4.5170807     1.8905581     2.3076023
C           3.4775513     0.4491603     1.1191476
C           2.2303965     0.6496161     1.9622984
H           2.3807994     1.4977238     2.6373990
H           1.9978209    -0.2176966     2.5920886
H           1.3406961     0.8710610     1.3658504
C           3.5765654    -0.4439076     0.0191940
C           4.8102596    -0.5327641    -0.6893213
C           4.9581549    -1.4894382    -1.8497878
H           4.2983824    -1.2366773    -2.6950978
H           4.7263534    -2.5234975    -1.5593448
H           5.9818658    -1.4739984    -2.2345390
C           5.8936420     0.2553759    -0.3067775
H           6.8228014     0.1699313    -0.8661739
