18
309_C8H9F_0-4-13-11 (-165,) energy =    -410.1134374
C           1.7317232    -1.6971765    -0.5582289
H           2.0914765    -1.6885833    -1.5932864
H           0.6740965    -1.9800509    -0.5823660
H           2.2768832    -2.4800601    -0.0187778
C           1.8955221    -0.3334673     0.1181276
H           1.4235562    -0.3605267     1.1078097
H           1.3300793     0.4227764    -0.4454980
C           5.9402635     1.1521953     0.6941051
H           6.9432222     1.5384521     0.8519097
C           4.8632230     1.7197722     1.3777482
H           4.9908584     2.5438245     2.0723049
C           3.5925052     1.2081681     1.1581995
F           2.5499448     1.7653699     1.8236420
C           3.3243774     0.1481085     0.2863132
C           4.4264141    -0.4002277    -0.3806625
H           4.2735904    -1.2296764    -1.0641746
C           5.7198091     0.0924218    -0.1848850
H           6.5529056    -0.3560104    -0.7186760
18
309_C8H9F_0-4-13-11 (-150,) energy =    -410.1130839
C           1.7239620    -1.7353365    -0.4320461
H           2.1643548    -1.9049560    -1.4206724
H           0.6630558    -1.9991777    -0.5000935
H           2.2007215    -2.4273315     0.2711401
C           1.8764824    -0.2809353     0.0288164
H           1.3214287    -0.1365041     0.9614192
H           1.3922737     0.3822496    -0.7033387
C           5.9293654     1.1395802     0.7193041
H           6.9351479     1.5067532     0.9026787
C           4.8597552     1.6506847     1.4550741
H           4.9955266     2.4122231     2.2162365
C           3.5833659     1.1660189     1.2021890
F           2.5541473     1.6767128     1.9236952
C           3.3047006     0.1834208     0.2471920
C           4.4016524    -0.3087673    -0.4723347
H           4.2393089    -1.0761096    -1.2234107
C           5.6980070     0.1590782    -0.2458004
H           6.5250966    -0.2452245    -0.8224618
18
309_C8H9F_0-4-13-11 (-135,) energy =    -410.1131254
C           1.7321165    -1.7485115    -0.3024793
H           2.2853159    -2.0902967    -1.1839432
H           0.6771166    -1.9981123    -0.4609102
H           2.0908891    -2.3214909     0.5596315
C           1.8927806    -0.2390209    -0.0697464
H           1.2641582     0.0702292     0.7698581
H           1.5080428     0.2998489    -0.9478781
C           5.9475731     1.1178215     0.7248775
H           6.9554964     1.4668120     0.9305458
C           4.8862867     1.5660373     1.5102275
H           5.0304800     2.2607580     2.3313885
C           3.6046570     1.1077627     1.2293400
F           2.5873461     1.5607279     2.0044547
C           3.3170358     0.2093001     0.1983429
C           4.4069436    -0.2176294    -0.5737477
H           4.2319062    -0.9111136    -1.3919067
C           5.7059650     0.2246283    -0.3205438
H           6.5266591    -0.1272571    -0.9392055
18
309_C8H9F_0-4-13-11 (-120,) energy =    -410.1136193
C           1.7116903    -1.7331912    -0.1539879
H           2.3602594    -2.2146438    -0.8941970
H           0.6759342    -1.9971302    -0.3956312
H           1.9516186    -2.1601535     0.8259964
C           1.8926953    -0.2061221    -0.1498968
H           1.2105736     0.2417352     0.5775004
H           1.6017374     0.1897948    -1.1327329
C           5.9398501     1.1018020     0.7437903
H           6.9485180     1.4344839     0.9717888
C           4.8827966     1.4799060     1.5701183
H           5.0315032     2.1038954     2.4454812
C           3.5993674     1.0440247     1.2598142
F           2.5873371     1.4266912     2.0782029
C           3.3088626     0.2372969     0.1574481
C           4.3942873    -0.1192584    -0.6561312
H           4.2094472    -0.7365358    -1.5322803
C           5.6939417     0.3006245    -0.3736536
H           6.5116852     0.0064275    -1.0254022
18
309_C8H9F_0-4-13-11 (-105,) energy =    -410.1141743
C           1.6983240    -1.7315376    -0.0418560
H           2.3913167    -2.3222366    -0.6514709
H           0.6768121    -2.0191685    -0.3155503
H           1.8595885    -2.0059715     1.0064137
C           1.9147597    -0.2229643    -0.2554201
H           1.1952424     0.3382834     0.3474344
H           1.7078437     0.0229628    -1.3050882
C           5.9341514     1.0728985     0.7558064
H           6.9373958     1.3989845     1.0151690
C           4.8699047     1.3627267     1.6089871
H           5.0082263     1.9101627     2.5357734
C           3.5942898     0.9365922     1.2573165
F           2.5723080     1.2265552     2.1008800
C           3.3185708     0.2290617     0.0855481
C           4.4097212    -0.0414587    -0.7522471
H           4.2328392    -0.5815751    -1.6799771
C           5.7029192     0.3691504    -0.4283029
H           6.5266334     0.1451149    -1.1000761
18
309_C8H9F_0-4-13-11 (-90,) energy =    -410.1147077
C           1.6679685    -1.6987712     0.0944424
H           2.3737401    -2.3939997    -0.3736048
H           0.6534065    -1.9960218    -0.1944942
H           1.7578038    -1.8090521     1.1805805
C           1.9541555    -0.2477230    -0.3320802
H           1.2203160     0.4175310     0.1344897
H           1.8216518    -0.1569539    -1.4172131
C           5.9459672     1.0566151     0.7622120
H           6.9417187     1.3854644     1.0457916
C           4.8795157     1.2426872     1.6427283
H           5.0091970     1.7103959     2.6133952
C           3.6151885     0.8146359     1.2587351
F           2.5862307     0.9936275     2.1246042
C           3.3505542     0.2077286     0.0290547
C           4.4419473     0.0386800    -0.8328720
H           4.2730158    -0.4228356    -1.8034442
C           5.7268267     0.4525559    -0.4772103
H           6.5526316     0.3088598    -1.1681176
18
309_C8H9F_0-4-13-11 (-75,) energy =    -410.1151050
C           1.6074139    -1.6337812     0.2141486
H           2.3133991    -2.4167644    -0.0842392
H           0.6034346    -1.9424133    -0.0985781
H           1.6175292    -1.5657775     1.3064379
C           1.9815590    -0.2807341    -0.4171202
H           1.2407558     0.4693700    -0.1145860
H           1.9262072    -0.3568398    -1.5094424
C           5.9333803     1.0676427     0.7649795
H           6.9187136     1.4053405     1.0733823
C           4.8631820     1.1522563     1.6577004
H           4.9795554     1.5488752     2.6611566
C           3.6134696     0.7148567     1.2413388
F           2.5775204     0.7985024     2.1145110
C           3.3645605     0.1941885    -0.0311076
C           4.4586905     0.1236879    -0.9021182
H           4.3041598    -0.2727619    -1.9031692
C           5.7306567     0.5523975    -0.5158893
H           6.5591516     0.4864054    -1.2153012
18
309_C8H9F_0-4-13-11 (-60,) energy =    -410.1144552
C           1.5460514    -1.5731895     0.3096245
H           2.2454756    -2.4089811     0.1941144
H           0.5655212    -1.9000629    -0.0544430
H           1.4571425    -1.3490059     1.3750939
C           2.0248942    -0.3401722    -0.4771216
H           1.2818707     0.4602924    -0.3561724
H           2.0543510    -0.5738171    -1.5476617
C           5.9413085     1.0783331     0.7617775
H           6.9197668     1.4254706     1.0813200
C           4.8827083     1.0600527     1.6714353
H           5.0009293     1.3870505     2.6994878
C           3.6403883     0.6125885     1.2430291
F           2.6176965     0.6219287     2.1363018
C           3.3860431     0.1764641    -0.0606864
C           4.4713505     0.2061748    -0.9462665
H           4.3161040    -0.1305499    -1.9686969
C           5.7340110     0.6527501    -0.5504895
H           6.5521226     0.6643746    -1.2649756
18
309_C8H9F_0-4-13-11 (-45,) energy =    -410.1126498
C           1.4327163    -1.4911029     0.3439378
H           2.1207779    -2.3312261     0.4938936
H           0.5262407    -1.8814521    -0.1320385
H           1.1622486    -1.0977897     1.3246173
C           2.0652141    -0.4095953    -0.5478266
H           1.3485752     0.4201991    -0.6419873
H           2.1979448    -0.8046853    -1.5616465
C           5.9410916     1.1090604     0.7324583
H           6.9114296     1.4779517     1.0523325
C           4.9062353     0.9859088     1.6590793
H           5.0339234     1.2529681     2.7032193
C           3.6712947     0.5118063     1.2336341
F           2.6806992     0.4378507     2.1592001
C           3.4017182     0.1442366    -0.0884240
C           4.4678423     0.2776535    -0.9906785
H           4.3052556    -0.0084398    -2.0273259
C           5.7183095     0.7575919    -0.5991963
H           6.5163270     0.8475012    -1.3306236
18
309_C8H9F_0-4-13-11 (-30,) energy =    -410.1109573
C           1.3136730    -1.3778410     0.3599596
H           1.9346733    -2.1871311     0.7604139
H           0.4765835    -1.8343884    -0.1799015
H           0.9101996    -0.8173484     1.2041540
C           2.1111797    -0.4812100    -0.5989672
H           1.4610634     0.3498316    -0.9128189
H           2.3301927    -1.0415974    -1.5159040
C           5.9325876     1.1632832     0.7097123
H           6.8894823     1.5678512     1.0268505
C           4.9318542     0.9300537     1.6503909
H           5.0722922     1.1440071     2.7051104
C           3.7111560     0.4112183     1.2308497
F           2.7644321     0.2260323     2.1856737
C           3.4259257     0.1000167    -0.1016862
C           4.4613665     0.3438789    -1.0188262
H           4.2854624     0.1041314    -2.0652158
C           5.6930828     0.8714688    -0.6341243
H           6.4643232     1.0447268    -1.3791966
18
309_C8H9F_0-4-13-11 (-15,) energy =    -410.1099482
C           1.2119850    -1.2607747     0.3676386
H           1.7251167    -2.0488694     0.9280584
H           0.3874597    -1.7239122    -0.1859266
H           0.7857108    -0.5625643     1.0906457
C           2.1535481    -0.5627642    -0.6222881
H           1.5880200     0.2253529    -1.1416180
H           2.4342663    -1.2782388    -1.4063303
C           5.9078851     1.2191582     0.7083802
H           6.8484071     1.6617466     1.0237048
C           4.9440210     0.8865404     1.6559556
H           5.0974841     1.0569182     2.7167677
C           3.7422400     0.3194484     1.2395582
F           2.8396805     0.0292356     2.2109823
C           3.4433155     0.0560623    -0.0994521
C           4.4426413     0.4023943    -1.0257142
H           4.2541529     0.2077597    -2.0795704
C           5.6524838     0.9766214    -0.6431604
H           6.3946849     1.2275980    -1.3955708
18
309_C8H9F_0-4-13-11 (0,) energy =    -410.1096174
C           1.0054407    -0.6418351    -0.3464385
H           0.6165110     0.1250882     0.3286110
H           0.2598235    -1.4418415    -0.4161428
H           1.1101650    -0.1903629    -1.3366516
C           2.3279955    -1.2320255     0.1573453
H           2.6332000    -2.0380493    -0.5248665
H           2.1444314    -1.7275899     1.1212242
C           5.8733280     1.2441337     0.7453119
H           6.7655821     1.8445974     0.8976994
C           4.7034728     1.8409568     0.2853028
H           4.6464534     2.9029425     0.0688941
C           3.5654007     1.0607329     0.0935114
F           2.4587879     1.7051028    -0.3569570
C           3.5296497    -0.3133350     0.3413796
C           4.7305721    -0.8797821     0.8046160
H           4.7472833    -1.9483349     1.0101252
C           5.8850290    -0.1281840     1.0064641
H           6.7894418    -0.6106391     1.3659709
18
309_C8H9F_0-4-13-11 (15,) energy =    -410.1099482
C           1.0637572    -0.6613859    -0.4622632
H           0.6050019     0.1669010     0.0812727
H           0.3210330    -1.4618369    -0.5539792
H           1.3022651    -0.3070538    -1.4702465
C           2.3047555    -1.2061184     0.2566973
H           2.6346226    -2.1208034    -0.2531734
H           2.0066636    -1.5307292     1.2648755
C           5.9014505     1.2238192     0.7040897
H           6.8059211     1.8145179     0.8176844
C           4.7080066     1.8425794     0.3429866
H           4.6442196     2.9119711     0.1691054
C           3.5550734     1.0747202     0.2001744
F           2.4220466     1.7394041    -0.1418019
C           3.5266533    -0.3079165     0.3981277
C           4.7515932    -0.8965677     0.7580885
H           4.7762225    -1.9730086     0.9152245
C           5.9210533    -0.1566635     0.9152760
H           6.8443240    -0.6559992     1.1949336
18
309_C8H9F_0-4-13-11 (30,) energy =    -410.1109573
C           1.1441286    -0.6893918    -0.5921104
H           0.6575750     0.2115143    -0.2162902
H           0.3873229    -1.4770146    -0.6787145
H           1.5188395    -0.4733456    -1.5990221
C           2.2720711    -1.1651733     0.3357271
H           2.5978274    -2.1642218     0.0217843
H           1.8534241    -1.2982529     1.3450875
C           5.9157916     1.2112003     0.6460468
H           6.8293961     1.7940889     0.7199853
C           4.7046525     1.8493491     0.3878849
H           4.6368162     2.9248935     0.2592975
C           3.5421021     1.0909295     0.2952242
F           2.3874718     1.7665539     0.0658130
C           3.5175971    -0.2987539     0.4436715
C           4.7585076    -0.9058274     0.6973556
H           4.7861996    -1.9877052     0.8074731
C           5.9409142    -0.1752887     0.8055208
H           6.8777851    -0.6879370     1.0040859
18
309_C8H9F_0-4-13-11 (45,) energy =    -410.1126497
C           1.2436616    -0.7210835    -0.7199410
H           0.8269394     0.2753690    -0.5682721
H           0.4165873    -1.4392945    -0.7472284
H           1.7341880    -0.7375287    -1.7001641
C           2.2280476    -1.1020622     0.3984488
H           2.5196094    -2.1526522     0.2853528
H           1.6958212    -1.0415067     1.3597331
C           5.9100125     1.2164253     0.5871544
H           6.8301071     1.7926388     0.6240332
C           4.6871627     1.8711491     0.4432867
H           4.6180828     2.9517615     0.3700871
C           3.5195492     1.1192145     0.3972044
F           2.3474657     1.7960228     0.2896264
C           3.4985634    -0.2762014     0.4866004
C           4.7476297    -0.8997646     0.6261868
H           4.7784003    -1.9852307     0.6873313
C           5.9387594    -0.1750850     0.6837922
H           6.8847250    -0.6973259     0.7947656
18
309_C8H9F_0-4-13-11 (60,) energy =    -410.1144552
C           1.3467702    -0.7608256    -0.8122294
H           1.0577507     0.2902949    -0.8828953
H           0.4337330    -1.3665484    -0.7951142
H           1.9086599    -1.0215996    -1.7163134
C           2.1846663    -1.0204630     0.4523245
H           2.4160917    -2.0891576     0.5288015
H           1.5740056    -0.7731396     1.3317469
C           5.8986659     1.2340295     0.5502466
H           6.8232459     1.8040573     0.5651630
C           4.6738705     1.9026137     0.5142534
H           4.6091577     2.9858916     0.5036416
C           3.5041578     1.1552452     0.4954472
F           2.3221116     1.8234474     0.4818515
C           3.4824828    -0.2425547     0.5122836
C           4.7293316    -0.8807283     0.5462160
H           4.7560416    -1.9679622     0.5544874
C           5.9256953    -0.1606172     0.5688069
H           6.8744043    -0.6888635     0.5975288
18
309_C8H9F_0-4-13-11 (75,) energy =    -410.1151050
C           1.4174782    -0.8592116    -0.8556560
H           1.1921985     0.1831329    -1.1018132
H           0.4732741    -1.4149870    -0.8307692
H           2.0355166    -1.2726038    -1.6604196
C           2.1392115    -0.9525667     0.5006672
H           2.3197078    -2.0049920     0.7493703
H           1.4814766    -0.5515879     1.2814145
C           5.8885449     1.2321686     0.5410900
H           6.8205192     1.7901963     0.5487383
C           4.6731957     1.9161375     0.6085447
H           4.6234864     2.9984962     0.6702182
C           3.4953022     1.1820445     0.5974632
F           2.3170839     1.8530660     0.6618605
C           3.4580712    -0.2127992     0.5254079
C           4.6938367    -0.8680170     0.4596643
H           4.7062585    -1.9543501     0.4060311
C           5.8985117    -0.1612033     0.4661225
H           6.8411775    -0.6985939     0.4157849
18
309_C8H9F_0-4-13-11 (90,) energy =    -410.1147077
C           1.4921125    -0.9817170    -0.8961955
H           1.3158710     0.0108039    -1.3248824
H           0.5342069    -1.5133416    -0.8650422
H           2.1624462    -1.5253079    -1.5712386
C           2.0991035    -0.8671031     0.5136974
H           2.2309579    -1.8719470     0.9334816
H           1.3972527    -0.3390970     1.1674380
C           5.8994904     1.2281497     0.5287192
H           6.8456592     1.7618420     0.5327229
C           4.7070012     1.9338889     0.6934916
H           4.6890550     3.0106499     0.8277506
C           3.5092833     1.2306025     0.6853449
F           2.3549163     1.9265038     0.8392421
C           3.4332792    -0.1546013     0.5243273
C           4.6483210    -0.8334298     0.3646024
H           4.6295705    -1.9145674     0.2448739
C           5.8698517    -0.1577412     0.3628872
H           6.7953676    -0.7125671     0.2382055
18
309_C8H9F_0-4-13-11 (105,) energy =    -410.1141742
C           1.5433510    -1.0930155    -0.8791810
H           1.4188571    -0.1744098    -1.4630586
H           0.5750374    -1.6048044    -0.8397768
H           2.2458647    -1.7381813    -1.4185793
C           2.0514152    -0.7792191     0.5392201
H           2.1271349    -1.7155586     1.1072666
H           1.3204140    -0.1534712     1.0589476
C           5.9050148     1.2224082     0.5563396
H           6.8656457     1.7296018     0.5614129
C           4.7419870     1.9410695     0.8309483
H           4.7609541     3.0031842     1.0529971
C           3.5231854     1.2725574     0.8200643
F           2.4026516     1.9886737     1.0878167
C           3.3997977    -0.0913420     0.5477427
C           4.5886316    -0.7849696     0.2807997
H           4.5333344    -1.8517956     0.0746913
C           5.8279829    -0.1447178     0.2808517
H           6.7307681    -0.7115007     0.0717004
18
309_C8H9F_0-4-13-11 (120,) energy =    -410.1136193
C           1.5845726    -1.2176793    -0.8684648
H           1.5250397    -0.4012083    -1.5965249
H           0.6009745    -1.6977585    -0.8145638
H           2.2956922    -1.9562541    -1.2546606
C           2.0062497    -0.6942941     0.5146364
H           2.0120181    -1.5316212     1.2261237
H           1.2603174     0.0162607     0.8802877
C           5.9051015     1.2243500     0.5773743
H           6.8765946     1.7099886     0.5978213
C           4.7649575     1.9424271     0.9344320
H           4.8113169     2.9835489     1.2372012
C           3.5313518     1.3016255     0.9023219
F           2.4369393     2.0211392     1.2557784
C           3.3698972    -0.0332094     0.5247588
C           4.5378820    -0.7280578     0.1778387
H           4.4589315    -1.7737505    -0.1104928
C           5.7905991    -0.1154484     0.1992677
H           6.6753662    -0.6829168    -0.0749293
18
309_C8H9F_0-4-13-11 (135,) energy =    -410.1131259
C           1.6328082    -1.3247486    -0.8317862
H           1.6953886    -0.6474098    -1.6906411
H           0.6103282    -1.7150654    -0.7810423
H           2.2979681    -2.1728752    -1.0265415
C           1.9906844    -0.5982630     0.4732697
H           1.9025215    -1.3048816     1.3114023
H           1.2551279     0.1875137     0.6659641
C           5.9457812     1.2080952     0.5959165
H           6.9296681     1.6669513     0.6345993
C           4.8296487     1.9212221     1.0314592
H           4.9074206     2.9338104     1.4139689
C           3.5810915     1.3134390     0.9734873
F           2.5109209     2.0260416     1.4067565
C           3.3771400     0.0173222     0.4922284
C           4.5213356    -0.6726778     0.0668306
H           4.4148429    -1.6871682    -0.3078824
C           5.7896811    -0.0927695     0.1140319
H           6.6540728    -0.6569158    -0.2244976
18
309_C8H9F_0-4-13-11 (150,) energy =    -410.1130836
C           1.6596855    -1.4717378    -0.7934104
H           1.8469851    -0.9598183    -1.7438991
H           0.6124588    -1.7925795    -0.7821893
H           2.2763711    -2.3769421    -0.7723851
C           1.9411949    -0.5504779     0.3994877
H           1.7484355    -1.0995039     1.3331286
H           1.2226553     0.2756239     0.3959808
C           5.9120271     1.2106472     0.6222882
H           6.8971313     1.6637278     0.6880562
C           4.8026019     1.8862294     1.1316752
H           4.8868013     2.8626922     1.5976690
C           3.5538236     1.2866098     1.0364765
F           2.4857420     1.9546512     1.5401113
C           3.3404110     0.0350077     0.4507766
C           4.4754939    -0.6150312    -0.0517310
H           4.3632992    -1.5882731    -0.5201977
C           5.7465067    -0.0419242     0.0306890
H           6.6046442    -0.5743932    -0.3695241
18
309_C8H9F_0-4-13-11 (165,) energy =    -410.1134374
C           1.6780833    -1.5584085    -0.7191250
H           1.9568520    -1.2186175    -1.7230756
H           0.6203351    -1.8409888    -0.7418399
H           2.2536854    -2.4644111    -0.4983892
C           1.9071775    -0.4640257     0.3266769
H           1.6114437    -0.8393607     1.3171460
H           1.2295527     0.3751874     0.1280447
C           5.9096590     1.2015836     0.6497157
H           6.9016301     1.6345526     0.7421609
C           4.8148093     1.8477050     1.2271447
H           4.9173286     2.7803974     1.7724322
C           3.5587201     1.2738402     1.0948586
F           2.4994300     1.9053021     1.6600761
C           3.3219933     0.0772960     0.4107290
C           4.4403065    -0.5429531    -0.1590683
H           4.3098864    -1.4709124    -0.7071733
C           5.7204723     0.0062418    -0.0429141
H           6.5669493    -0.5013232    -0.4967172
18
309_C8H9F_0-4-13-11 (180,) energy =    -410.1136538
C           1.7073076    -1.6430817    -0.6463958
H           2.0267110    -1.4667751    -1.6798980
H           0.6499348    -1.9266100    -0.6702173
H           2.2717687    -2.4997648    -0.2607529
C           1.8980746    -0.4002896     0.2253598
H           1.5125922    -0.6004203     1.2343907
H           1.2696397     0.4145408    -0.1592095
C           5.9245796     1.1735234     0.6696968
H           6.9225140     1.5840408     0.7946561
C           4.8397328     1.7839060     1.3032108
H           4.9562625     2.6656944     1.9250142
C           3.5765175     1.2394785     1.1269914
F           2.5241567     1.8336828     1.7431159
C           3.3224291     0.1070332     0.3466222
C           4.4305168    -0.4805080    -0.2742828
H           4.2879632    -1.3620924    -0.8913975
C           5.7180570     0.0420570    -0.1181882
H           6.5570436    -0.4380358    -0.6138464
