18
438_C8H6FN3_4-5-14-12 (-165,) energy =    -572.5162581
C           5.8000620     1.0746237    -0.0907847
H           6.6370789     1.7650305    -0.0842297
C           5.1299859     0.7423912     1.0856289
H           5.4319646     1.1734324     2.0377429
N           4.1017730    -0.1067852     1.1361321
C           3.6696582    -0.6734513     0.0124519
C           4.2792961    -0.3788983    -1.2196534
F           3.8321049    -0.9243445    -2.3744247
C           5.3539409     0.4916487    -1.2757726
H           5.8085502     0.7025627    -2.2383547
C           1.0163778    -3.0850055    -0.2338326
H           0.4068094    -3.8628937    -0.6703440
C           2.1062312    -2.4729550    -0.8001276
H           2.5907922    -2.6184821    -1.7498430
N           2.5695009    -1.5566294     0.1177286
N           1.8105529    -1.5504368     1.2529533
C           0.8814699    -2.4677756     1.0357991
H           0.1371105    -2.6550980     1.7992085
18
438_C8H6FN3_4-5-14-12 (-150,) energy =    -572.5165611
C           5.8108945     1.0548329    -0.0909494
H           6.6614277     1.7286805    -0.0856999
C           5.1959077     0.6649346     1.0981881
H           5.5571242     1.0322613     2.0562174
N           4.1563532    -0.1719194     1.1531954
C           3.6580799    -0.6530216     0.0177809
C           4.2087947    -0.2997106    -1.2247119
F           3.6837711    -0.7776500    -2.3740205
C           5.2980840     0.5522336    -1.2864208
H           5.7098826     0.8152175    -2.2554068
C           1.0777183    -3.1367500    -0.2042905
H           0.5307671    -3.9787373    -0.6031052
C           2.2001729    -2.5507267    -0.7355234
H           2.7739812    -2.7729564    -1.6200593
N           2.5469065    -1.5226819     0.1086353
N           1.6927135    -1.4219152     1.1671734
C           0.8101813    -2.3903821     0.9715074
H           0.0022974    -2.5193134     1.6804115
18
438_C8H6FN3_4-5-14-12 (-135,) energy =    -572.5160193
C           5.8239973     1.0234366    -0.0975775
H           6.6892055     1.6785300    -0.0916901
C           5.2530737     0.5819096     1.0961399
H           5.6663403     0.8873544     2.0547297
N           4.1982079    -0.2370453     1.1523219
C           3.6416176    -0.6341083     0.0120372
C           4.1493048    -0.2341733    -1.2324105
F           3.5650724    -0.6567949    -2.3717596
C           5.2548715     0.5972836    -1.2975284
H           5.6361066     0.9031819    -2.2663931
C           1.1365173    -3.1909888    -0.1528919
H           0.6498780    -4.0926511    -0.4953479
C           2.2821290    -2.6229210    -0.6558048
H           2.9345568    -2.9122852    -1.4649535
N           2.5190042    -1.4921219     0.0844794
N           1.5841948    -1.3115233     1.0590145
C           0.7494469    -2.3302860     0.9052839
H          -0.1104293    -2.4120526     1.5577333
18
438_C8H6FN3_4-5-14-12 (-120,) energy =    -572.5146301
C           5.8286166     1.0015450    -0.1078988
H           6.7019734     1.6459425    -0.0994159
C           5.3112500     0.4869979     1.0820015
H           5.7767562     0.7223293     2.0363151
N           4.2485780    -0.3225381     1.1350891
C           3.6331396    -0.6291153    -0.0028632
C           4.0878474    -0.1604099    -1.2413788
F           3.4463934    -0.5123692    -2.3703338
C           5.2009169     0.6632693    -1.3060969
H           5.5438448     1.0277805    -2.2689540
C           1.1838960    -3.2413084    -0.0969102
H           0.7461866    -4.1900903    -0.3712915
C           2.3610568    -2.7022185    -0.5607332
H           3.0920887    -3.0634323    -1.2689315
N           2.5056129    -1.4864357     0.0529013
N           1.4882224    -1.2216101     0.9178208
C           0.6879263    -2.2753208     0.8133526
H          -0.2249168    -2.3057307     1.3943298
18
438_C8H6FN3_4-5-14-12 (-105,) energy =    -572.5131259
C           5.8281057     1.0027177    -0.1228007
H           6.6982002     1.6518084    -0.1189575
C           5.3985274     0.3835315     1.0531215
H           5.9301846     0.5412983     1.9885766
N           4.3411374    -0.4324017     1.1106549
C           3.6518576    -0.6470645    -0.0061385
C           4.0150534    -0.0714425    -1.2274820
F           3.2976382    -0.3312163    -2.3314426
C           5.1194777     0.7662317    -1.2989106
H           5.3948706     1.2149689    -2.2477487
C           1.2068764    -3.2710863    -0.0293513
H           0.7942380    -4.2493707    -0.2287423
C           2.4409350    -2.7931894    -0.4103903
H           3.2525364    -3.2437005    -0.9633553
N           2.5243215    -1.5106528     0.0532502
N           1.4109028    -1.1337231     0.7382425
C           0.6154015    -2.1965587     0.6769800
H          -0.3612019    -2.1537757     1.1419525
18
438_C8H6FN3_4-5-14-12 (-90,) energy =    -572.5129488
C           5.7925220     1.0156897    -0.1812327
H           6.6421244     1.6905749    -0.2167858
C           5.5367631     0.2572173     0.9627475
H           6.1840846     0.3303720     1.8334213
N           4.5023173    -0.5842841     1.0693710
C           3.6860029    -0.7103178     0.0276466
C           3.8694709     0.0093066    -1.1569648
F           3.0227538    -0.1580004    -2.1807706
C           4.9371762     0.8886357    -1.2740193
H           5.0776176     1.4470124    -2.1937934
C           1.2012406    -3.3003038     0.0070599
H           0.7904898    -4.2898986    -0.1309347
C           2.5139737    -2.9123104    -0.1525123
H           3.4029453    -3.4597635    -0.4307603
N           2.5671014    -1.5821975     0.1480311
N           1.3468166    -1.0726057     0.4678774
C           0.5276871    -2.1176229     0.3922424
H          -0.5225495    -1.9841454     0.6180417
18
438_C8H6FN3_4-5-14-12 (-75,) energy =    -572.5145234
C           5.8063523     1.0011889    -0.1968367
H           6.6596560     1.6711006    -0.2352081
C           5.6233293     0.1460020     0.8904664
H           6.3329051     0.1344233     1.7143844
N           4.5805903    -0.6850033     1.0026422
C           3.6923987    -0.7182673     0.0134436
C           3.8039750     0.0971710    -1.1187558
F           2.8979538     0.0172753    -2.1003255
C           4.8719750     0.9759318    -1.2311471
H           4.9564226     1.6080124    -2.1091508
C           1.2282168    -3.3196906     0.0718025
H           0.8348632    -4.3245118     0.0205182
C           2.5512824    -2.9395631     0.0323432
H           3.4678891    -3.5053388    -0.0490037
N           2.5709864    -1.5788828     0.1553149
N           1.3197401    -1.0477170     0.2293829
C           0.5138606    -2.1040640     0.1964547
H          -0.5562288    -1.9564127     0.2661461
18
438_C8H6FN3_4-5-14-12 (-60,) energy =    -572.5166672
C           5.8226657     0.9730476    -0.2071977
H           6.6884169     1.6271427    -0.2343068
C           5.6655174     0.0428253     0.8198583
H           6.4090855    -0.0475222     1.6082118
N           4.6065005    -0.7688261     0.9179010
C           3.6745975    -0.7133055    -0.0304819
C           3.7616422     0.1770473    -1.1094414
F           2.8274087     0.1840190    -2.0671752
C           4.8444559     1.0396563    -1.1987269
H           4.9084320     1.7287787    -2.0345797
C           1.2542854    -3.3417252     0.1651422
H           0.8836471    -4.3551278     0.2163706
C           2.5686540    -2.9342443     0.1741455
H           3.5000288    -3.4768956     0.2385067
N           2.5540851    -1.5679074     0.1111136
N           1.2909785    -1.0664348     0.0264846
C           0.5100905    -2.1396622     0.0753493
H          -0.5647079    -2.0142837     0.0478624
18
438_C8H6FN3_4-5-14-12 (-45,) energy =    -572.5186773
C           5.8227370     0.9605276    -0.2116652
H           6.6985581     1.6012572    -0.2258244
C           5.6856880    -0.0398648     0.7491213
H           6.4559978    -0.2021833     1.4993879
N           4.6152609    -0.8377371     0.8282318
C           3.6452981    -0.6987138    -0.0736094
C           3.7121480     0.2643327    -1.0924999
F           2.7534257     0.3593906    -2.0208131
C           4.8084319     1.1115208    -1.1568963
H           4.8547606     1.8554104    -1.9457087
C           1.2697487    -3.3458587     0.2739486
H           0.9182758    -4.3551379     0.4312660
C           2.5717258    -2.9040810     0.3050250
H           3.5096297    -3.4039801     0.4929594
N           2.5319242    -1.5576748     0.0594158
N           1.2642838    -1.1056046    -0.1502344
C           0.5058341    -2.1857409    -0.0092276
H          -0.5679011    -2.0958047    -0.1125174
18
438_C8H6FN3_4-5-14-12 (-30,) energy =    -572.5200991
C           5.8353661     0.9388230    -0.2217551
H           6.7199184     1.5673559    -0.2223432
C           5.7128138    -0.1238207     0.6707405
H           6.5038931    -0.3505147     1.3817391
N           4.6342067    -0.9112752     0.7273589
C           3.6317850    -0.6977101    -0.1243756
C           3.6831366     0.3327104    -1.0789099
F           2.7029051     0.5148940    -1.9710469
C           4.7916493     1.1651795    -1.1185836
H           4.8223444     1.9601404    -1.8567705
C           1.2796946    -3.3400902     0.3597280
H           0.9342017    -4.3299052     0.6201944
C           2.5690436    -2.8681020     0.4181209
H           3.5000819    -3.3160766     0.7277122
N           2.5265834    -1.5656517    -0.0075288
N           1.2660038    -1.1715795    -0.3449648
C           0.5179425    -2.2428359    -0.1171532
H          -0.5477031    -2.1923531    -0.3003444
18
438_C8H6FN3_4-5-14-12 (-15,) energy =    -572.5207124
C           5.8509520     0.9179145    -0.2274555
H           6.7419912     1.5369888    -0.2211094
C           5.7498176    -0.2028472     0.5929829
H           6.5643692    -0.4870851     1.2552073
N           4.6677572    -0.9850044     0.6317145
C           3.6294935    -0.7051371    -0.1567427
C           3.6556054     0.3923773    -1.0372391
F           2.6445751     0.6634649    -1.8705772
C           4.7735265     1.2130914    -1.0616868
H           4.7807254     2.0590625    -1.7415165
C           1.2808719    -3.3247423     0.4448397
H           0.9277636    -4.2813079     0.8015876
C           2.5547103    -2.8211374     0.5443104
H           3.4638562    -3.2065416     0.9764801
N           2.5332743    -1.5848531    -0.0518799
N           1.2961787    -1.2635038    -0.5290493
C           0.5464748    -2.3138850    -0.2272284
H          -0.5010419    -2.3112919    -0.5001505
18
438_C8H6FN3_4-5-14-12 (0,) energy =    -572.5207920
C           5.8650002     0.8906039    -0.2785606
H           6.7667713     1.4938070    -0.2869636
C           5.7896119    -0.2788703     0.4734573
H           6.6333579    -0.6163125     1.0710882
N           4.7018064    -1.0517417     0.5140674
C           3.6225733    -0.7087432    -0.1909435
C           3.6103892     0.4578663    -0.9796406
F           2.5452716     0.8306114    -1.6985589
C           4.7428090     1.2584057    -1.0190230
H           4.7198038     2.1545579    -1.6308218
C           1.2564641    -3.2897056     0.5023612
H           0.8797073    -4.1989309     0.9477489
C           2.5006614    -2.7358486     0.6765640
H           3.3614332    -3.0325310     1.2528879
N           2.5277892    -1.5901141    -0.0807513
N           1.3508208    -1.3805943    -0.7389395
C           0.5896719    -2.4055697    -0.3846011
H          -0.4162798    -2.4775073    -0.7779269
18
438_C8H6FN3_4-5-14-12 (15,) energy =    -572.5207124
C           5.8835383     0.8680362    -0.3023139
H           6.7909081     1.4621375    -0.3334168
C           5.8449239    -0.3483141     0.3747795
H           6.7221500    -0.7283936     0.8932782
N           4.7570082    -1.1215159     0.4269492
C           3.6392138    -0.7200399    -0.1791322
C           3.5799506     0.5080142    -0.8638683
F           2.4559858     0.9517879    -1.4382298
C           4.7167206     1.2999037    -0.9315550
H           4.6605134     2.2428252    -1.4659959
C           1.2260095    -3.2408534     0.5706399
H           0.8050882    -4.0936969     1.0829439
C           2.4357310    -2.6391945     0.8171286
H           3.2268418    -2.8440693     1.5199966
N           2.5410068    -1.5967130    -0.0696911
N           1.4514461    -1.5009986    -0.8852018
C           0.6635018    -2.4928901    -0.4956545
H          -0.2850144    -2.6417061    -0.9956099
18
438_C8H6FN3_4-5-14-12 (30,) energy =    -572.5200991
C           5.8820563     0.8673779    -0.3289771
H           6.7841166     1.4691366    -0.3697190
C           5.8861352    -0.3888737     0.2731821
H           6.7918476    -0.7908539     0.7213037
N           4.8085297    -1.1778587     0.3275365
C           3.6608874    -0.7422473    -0.1911829
C           3.5576239     0.5245897    -0.7911771
F           2.3942695     0.9867065    -1.2634131
C           4.6832220     1.3309268    -0.8700923
H           4.5957557     2.3065535    -1.3373477
C           1.1742296    -3.1788352     0.6015339
H           0.6959403    -3.9655808     1.1665230
C           2.3626819    -2.5525602     0.8912932
H           3.0829178    -2.6781716     1.6842895
N           2.5663573    -1.6265076    -0.0988084
N           1.5592222    -1.6199820    -1.0174234
C           0.7256284    -2.5604328    -0.5934491
H          -0.1718787    -2.7670637    -1.1622127
18
438_C8H6FN3_4-5-14-12 (45,) energy =    -572.5186773
C           5.8854716     0.8645507    -0.3556631
H           6.7779269     1.4798424    -0.4079780
C           5.9369894    -0.4241812     0.1727249
H           6.8706085    -0.8362255     0.5484901
N           4.8739498    -1.2333488     0.2349088
C           3.6979740    -0.7793024    -0.1945044
C           3.5483056     0.5148274    -0.7168959
F           2.3511934     0.9744227    -1.0985295
C           4.6565799     1.3436778    -0.8088056
H           4.5359449     2.3428770    -1.2147505
C           1.1187891    -3.1150285     0.6201018
H           0.5739732    -3.8286340     1.2208256
C           2.2916205    -2.4757558     0.9473239
H           2.9337697    -2.5233684     1.8134991
N           2.6090094    -1.6755877    -0.1174355
N           1.6852320    -1.7493715    -1.1156462
C           0.7942036    -2.6267592    -0.6705822
H          -0.0528602    -2.8834612    -1.2936807
18
438_C8H6FN3_4-5-14-12 (60,) energy =    -572.5166672
C           5.8922562     0.8665901    -0.3669146
H           6.7748290     1.4949604    -0.4326137
C           5.9886644    -0.4513566     0.0787033
H           6.9476848    -0.8711631     0.3729817
N           4.9395786    -1.2781926     0.1539898
C           3.7382746    -0.8107165    -0.1766017
C           3.5461987     0.5064528    -0.6154988
F           2.3208476     0.9585901    -0.9056390
C           4.6363446     1.3578472    -0.7216173
H           4.4846739     2.3767253    -1.0629620
C           1.0503443    -3.0298814     0.6327851
H           0.4327560    -3.6656391     1.2503439
C           2.2087094    -2.3838347     0.9995282
H           2.7647154    -2.3524586     1.9247010
N           2.6499545    -1.7145446    -0.1088108
N           1.8139262    -1.8661759    -1.1728313
C           0.8589816    -2.6732294    -0.7247951
H           0.0641505    -2.9759865    -1.3943087
18
438_C8H6FN3_4-5-14-12 (75,) energy =    -572.5145234
C           5.8952757     0.8651665    -0.4008890
H           6.7679154     1.5055082    -0.4836155
C           6.0306613    -0.4769176    -0.0437461
H           7.0105902    -0.9019120     0.1601948
N           4.9947211    -1.3183174     0.0528560
C           3.7736025    -0.8424793    -0.1728693
C           3.5452998     0.4926884    -0.5256717
F           2.2979806     0.9346963    -0.7245710
C           4.6174977     1.3650271    -0.6477079
H           4.4387585     2.3995629    -0.9221812
C           0.9883847    -2.9529626     0.6217527
H           0.3017305    -3.5092601     1.2430916
C           2.1178382    -2.2767580     1.0262754
H           2.5765533    -2.1423123     1.9949818
N           2.6825992    -1.7495944    -0.1007139
N           1.9508972    -2.0129312    -1.2180797
C           0.9391462    -2.7544533    -0.7788760
H           0.2076948    -3.1246570    -1.4857545
18
438_C8H6FN3_4-5-14-12 (90,) energy =    -572.5129488
C           5.8981453     0.8541297    -0.4235823
H           6.7712172     1.4931238    -0.5129706
C           6.0423564    -0.5159640    -0.1967998
H           7.0295988    -0.9626086    -0.1056379
N           5.0060847    -1.3546707    -0.0859707
C           3.7790997    -0.8527166    -0.1859386
C           3.5439192     0.5070914    -0.4105185
F           2.2884813     0.9647923    -0.4970375
C           4.6136052     1.3833889    -0.5321341
H           4.4293313     2.4383106    -0.7072800
C           0.9400416    -2.9009027     0.6060073
H           0.1991958    -3.3857086     1.2250125
C           2.0002878    -2.1268018     1.0254311
H           2.3392727    -1.8332037     2.0084300
N           2.6745540    -1.7465469    -0.0984553
N           2.0900525    -2.2092083    -1.2366042
C           1.0493803    -2.9154373    -0.8041728
H           0.4114007    -3.4123912    -1.5237680
18
438_C8H6FN3_4-5-14-12 (105,) energy =    -572.5131259
C           5.9520277     0.8132175    -0.4070481
H           6.8526650     1.4156019    -0.4732551
C           6.0294474    -0.5812545    -0.3937635
H           6.9925920    -1.0833086    -0.4478005
N           4.9584775    -1.3764202    -0.3050754
C           3.7573978    -0.8084522    -0.2482043
C           3.5893100     0.5795930    -0.2512171
F           2.3574384     1.1065118    -0.1754212
C           4.6966935     1.4127407    -0.3294459
H           4.5614675     2.4893846    -0.3366589
C           0.9353613    -2.8558760     0.5932967
H           0.1643366    -3.2861141     1.2157784
C           1.8490651    -1.8880961     0.9468848
H           2.0166043    -1.3537089     1.8708915
N           2.6166376    -1.6518169    -0.1584751
N           2.2617526    -2.4348332    -1.2129578
C           1.2405414    -3.1525119    -0.7566028
H           0.7544001    -3.8597409    -1.4163586
18
438_C8H6FN3_4-5-14-12 (120,) energy =    -572.5146301
C           5.9599529     0.8007071    -0.4091478
H           6.8638988     1.3983276    -0.4708221
C           6.0146865    -0.5886819    -0.5311810
H           6.9647226    -1.0942826    -0.6879958
N           4.9395673    -1.3791825    -0.4495359
C           3.7511663    -0.8095979    -0.2735642
C           3.6061071     0.5762561    -0.1367013
F           2.3863989     1.1085528     0.0604039
C           4.7187267     1.4006223    -0.2004004
H           4.5978844     2.4743202    -0.0997438
C           0.8922767    -2.7953583     0.5718352
H           0.0725021    -3.1598870     1.1736243
C           1.7399235    -1.7523810     0.8636412
H           1.7945876    -1.0792998     1.7064942
N           2.6107091    -1.6471439    -0.1881333
N           2.3856201    -2.5938989    -1.1401267
C           1.3409275    -3.2738772    -0.6841218
H           0.9395638    -4.0864358    -1.2760658
18
438_C8H6FN3_4-5-14-12 (135,) energy =    -572.5160193
C           5.9697007     0.8006275    -0.4317759
H           6.8698139     1.4023440    -0.5059432
C           6.0113492    -0.5776303    -0.6428022
H           6.9485214    -1.0733308    -0.8856386
N           4.9405208    -1.3721738    -0.5500007
C           3.7638444    -0.8210145    -0.2682965
C           3.6318111     0.5571659    -0.0457432
F           2.4253302     1.0860734     0.2418561
C           4.7412261     1.3827369    -0.1197000
H           4.6257233     2.4482352     0.0505504
C           0.8439546    -2.7435974     0.5180139
H          -0.0329223    -3.0485100     1.0704666
C           1.6568475    -1.6667415     0.7780816
H           1.6228985    -0.9065054     1.5429368
N           2.6358083    -1.6707345    -0.1834051
N           2.5026056    -2.7159439    -1.0471165
C           1.4176258    -3.3520525    -0.6269981
H           1.0767658    -4.2274924    -1.1647549
18
438_C8H6FN3_4-5-14-12 (150,) energy =    -572.5165611
C           5.9743514     0.8048756    -0.4658600
H           6.8695345     1.4104440    -0.5630130
C           5.9981099    -0.5617782    -0.7414870
H           6.9170549    -1.0473196    -1.0624477
N           4.9320365    -1.3580784    -0.6256527
C           3.7728132    -0.8284685    -0.2453681
C           3.6582553     0.5421633     0.0377373
F           2.4722176     1.0750338     0.4042747
C           4.7642863     1.3685047    -0.0623783
H           4.6569061     2.4254055     0.1592125
C           0.7907081    -2.6978505     0.4538801
H          -0.1412880    -2.9510301     0.9380646
C           1.5771108    -1.5979423     0.6932722
H           1.4664966    -0.7735614     1.3782586
N           2.6592352    -1.6944500    -0.1489849
N           2.6043090    -2.8159123    -0.9233286
C           1.4781812    -3.4118738    -0.5603651
H           1.1905573    -4.3363798    -1.0445198
18
438_C8H6FN3_4-5-14-12 (165,) energy =    -572.5162581
C           5.9731670     0.8099129    -0.4878201
H           6.8645655     1.4171591    -0.6059839
C           5.9683771    -0.5396624    -0.8370378
H           6.8613747    -1.0123972    -1.2402571
N           4.9042203    -1.3338725    -0.7040954
C           3.7715870    -0.8293176    -0.2213355
C           3.6868843     0.5270076     0.1388185
F           2.5336441     1.0612388     0.6031700
C           4.7912776     1.3520621     0.0144668
H           4.7016425     2.3952241     0.2999443
C           0.7462850    -2.6719774     0.3855428
H          -0.2310696    -2.8874507     0.7924519
C           1.4982235    -1.5431941     0.5941417
H           1.3116367    -0.6624124     1.1835023
N           2.6693475    -1.7093101    -0.1112698
N           2.6947779    -2.9025767    -0.7747785
C           1.5396536    -3.4742549    -0.4735583
H           1.3090829    -4.4472544    -0.8883640
18
438_C8H6FN3_4-5-14-12 (180,) energy =    -572.5158997
C           5.7878143     1.0931502    -0.0942197
H           6.6172297     1.7925768    -0.0855673
C           5.0484797     0.8339773     1.0584856
H           5.2887895     1.3302179     1.9963876
N           4.0210502    -0.0156686     1.1020394
C           3.6596903    -0.6654680    -0.0016621
C           4.3545703    -0.4603087    -1.2075495
F           4.0093555    -1.1078275    -2.3457578
C           5.4215564     0.4198946    -1.2581577
H           5.9396580     0.5589400    -2.2015439
C           0.9525726    -3.0208621    -0.2576374
H           0.2809561    -3.7297716    -0.7198748
C           1.9822960    -2.3446664    -0.8611881
H           2.3428743    -2.3593366    -1.8740960
N           2.5623679    -1.5534547     0.1073426
N           1.9392079    -1.6986896     1.3144923
C           0.9774523    -2.5788068     1.0894700
H           0.3282891    -2.8697574     1.9055325
