27
202_C10H13NO2S_0-6-11-12 (-165,) energy =    -992.2055941
C           0.2338772    -0.6333848    -1.2881705
H           0.5241357    -1.1907168    -2.1728343
C          -1.0430760    -0.0868725    -1.1768800
H          -1.7521374    -0.2075377    -1.9908734
C          -1.4106372     0.6095616    -0.0225232
H          -2.4083696     1.0314025     0.0617529
C           1.1371804    -0.4775001    -0.2316712
C          -0.4983822     0.7646083     1.0221049
H          -0.7831623     1.3071810     1.9192118
C           0.7869588     0.2288979     0.9194671
H           1.5106489     0.3471075     1.7174999
S           2.8016494    -1.1058466    -0.4988283
N           3.4329155    -1.1334961     1.0817242
C           4.8604029    -0.7587535     1.2249334
H           5.1451078    -0.0629465     0.4365545
C           5.6561037    -2.0864656     1.2231551
H           6.4717690    -2.0553489     1.9524687
H           6.1032593    -2.2617293     0.2401520
H           4.9548948    -0.2452224     2.1891021
C           3.2915862    -2.4226731     1.8003058
H           2.4048170    -2.9603660     1.4617135
H           3.1629187    -2.1831653     2.8628135
C           4.6098692    -3.1884380     1.5522906
H           4.4856039    -3.8631082     0.7013670
H           4.8916857    -3.7912034     2.4212746
O           2.6604343    -2.4642911    -1.0481780
O           3.5709750    -0.1028584    -1.2468720
27
202_C10H13NO2S_0-6-11-12 (-150,) energy =    -992.2068792
C           0.2588973    -0.7852885    -1.1632824
H           0.5544603    -1.4399141    -1.9761893
C          -1.0545241    -0.3312717    -1.0436400
H          -1.7947136    -0.6263488    -1.7818702
C          -1.4163093     0.4956906     0.0217857
H          -2.4411916     0.8447620     0.1130792
C           1.1993392    -0.4054340    -0.2026266
C          -0.4645851     0.8749816     0.9714904
H          -0.7468740     1.5183060     1.8001212
C           0.8535467     0.4328662     0.8596494
H           1.6045740     0.7170306     1.5879924
S           2.9065133    -0.8980741    -0.4785228
N           3.4713565    -1.0526610     1.1225718
C           4.9202108    -0.7993903     1.3161810
H           5.2721327    -0.0693579     0.5874990
C           5.6167140    -2.1789287     1.2311976
H           6.4228897    -2.2571838     1.9674930
H           6.0621476    -2.3219604     0.2422641
H           5.0294077    -0.3647193     2.3167880
C           3.2221647    -2.3747509     1.7466401
H           2.3060420    -2.8219664     1.3562629
H           3.0819996    -2.1965739     2.8194912
C           4.4878031    -3.2192609     1.4768546
H           4.3361947    -3.8340993     0.5863665
H           4.7066523    -3.8879110     2.3152440
O           2.8698556    -2.1917566    -1.1820403
O           3.6480742     0.2228537    -1.0703551
27
202_C10H13NO2S_0-6-11-12 (-135,) energy =    -992.2076081
C           0.5219833    -0.9860279    -1.0871294
H           0.8473964    -1.7254604    -1.8108000
C          -0.8182933    -0.6082118    -0.9846188
H          -1.5555081    -1.0569721    -1.6442228
C          -1.2077190     0.3417386    -0.0395367
H          -2.2517450     0.6327137     0.0378156
C           1.4560662    -0.4054290    -0.2287410
C          -0.2596207     0.9213135     0.8093306
H          -0.5654305     1.6613581     1.5434195
C           1.0813546     0.5547576     0.7151300
H           1.8284391     0.9906071     1.3694200
S           3.1913904    -0.8155553    -0.4539986
N           3.6649162    -1.0949986     1.1612407
C           5.1131560    -0.9152742     1.4265798
H           5.5141019    -0.1166541     0.8021689
C           5.7597479    -2.2988913     1.1993042
H           6.6095338    -2.4596285     1.8702175
H           6.1308260    -2.3745338     0.1728002
H           5.1992586    -0.6073924     2.4756666
C           3.3485820    -2.4508051     1.6741701
H           2.4492221    -2.8452789     1.1971922
H           3.1401453    -2.3407053     2.7446117
C           4.6098703    -3.3181939     1.4335008
H           4.4715844    -3.9482936     0.5517063
H           4.8016838    -3.9746344     2.2880872
O           3.2463887    -2.0415980    -1.2692739
O           3.9234088     0.3793844    -0.8914471
27
202_C10H13NO2S_0-6-11-12 (-120,) energy =    -992.2077795
C           0.1123598    -0.1022286     1.6155714
H           0.3624740    -0.4301521     2.6187103
C          -0.7902797     0.9397160     1.3906841
H          -1.2531111     1.4418010     2.2354670
C          -1.0974969     1.3304809     0.0869960
H          -1.8003901     2.1412404    -0.0839703
C           0.6980787    -0.7355464     0.5200675
C          -0.5067376     0.6814289    -1.0021716
H          -0.7507871     0.9856588    -2.0160105
C           0.3946426    -0.3593526    -0.7911541
H           0.8604955    -0.8735621    -1.6250445
S           1.8143545    -2.1144471     0.8048679
N           3.2482059    -1.5166801     0.0948491
C           4.2088879    -2.5598968    -0.3411766
H           3.6721340    -3.4462933    -0.6799798
C           5.1551997    -2.7991984     0.8570365
H           6.1742697    -3.0170656     0.5220610
H           4.8115949    -3.6561934     1.4439282
H           4.7531431    -2.1417471    -1.1963909
C           4.0385223    -0.6092743     0.9615136
H           3.3858818    -0.0453807     1.6308935
H           4.5341918     0.1067667     0.2957166
C           5.0705038    -1.4960041     1.7003535
H           4.7200185    -1.7170604     2.7112537
H           6.0365431    -0.9880592     1.7829633
O           1.9467194    -2.2748821     2.2634705
O           1.3952139    -3.2518374    -0.0226624
27
202_C10H13NO2S_0-6-11-12 (-105,) energy =    -992.2074807
C           0.2716574    -0.0071308     1.5662320
H           0.6274637    -0.2578008     2.5597899
C          -0.6159760     1.0505089     1.3570134
H          -0.9483668     1.6490412     2.2003901
C          -1.0794491     1.3311814     0.0709841
H          -1.7716883     2.1535504    -0.0874379
C           0.6851420    -0.7679986     0.4728071
C          -0.6626014     0.5542083    -1.0144091
H          -1.0319403     0.7698716    -2.0129412
C           0.2244158    -0.5022986    -0.8189595
H           0.5514697    -1.1207641    -1.6480532
S           1.8230794    -2.1345033     0.7287107
N           3.2779751    -1.4705516     0.1275399
C           4.2655716    -2.4642022    -0.3605837
H           3.7524836    -3.3253349    -0.7889464
C           5.1752958    -2.7914197     0.8451699
H           6.2072565    -2.9722588     0.5280197
H           4.8226825    -3.6963894     1.3488937
H           4.8321646    -1.9711193    -1.1595897
C           4.0293442    -0.6283673     1.0884218
H           3.3508327    -0.1238741     1.7786633
H           4.5384279     0.1420034     0.4975021
C           5.0474537    -1.5618969     1.7878997
H           4.6669013    -1.8675412     2.7653896
H           6.0039814    -1.0530402     1.9435699
O           1.8964036    -2.3760485     2.1799055
O           1.4631655    -3.2241803    -0.1861045
27
202_C10H13NO2S_0-6-11-12 (-90,) energy =    -992.2068782
C           0.1531643     0.4585930     1.3323702
H           0.5066350     0.6203912     2.3449334
C          -0.7787707     1.3139558     0.7459230
H          -1.1560350     2.1642901     1.3068491
C          -1.2327415     1.0733496    -0.5534411
H          -1.9602698     1.7421489    -1.0050491
C           0.6268295    -0.6308838     0.5989522
C          -0.7661586    -0.0318219    -1.2679448
H          -1.1339750    -0.2284463    -2.2709985
C           0.1629551    -0.8980520    -0.6902106
H           0.5061175    -1.7819368    -1.2170608
S           1.8056184    -1.7485834     1.3678038
N           3.2975421    -1.0335076     0.9446466
C           3.9012558    -1.5045125    -0.3231541
H           3.1326445    -1.8013963    -1.0378813
C           4.8616436    -2.6514826     0.0634024
H           5.7439429    -2.6696908    -0.5841603
H           4.3478098    -3.6104436    -0.0406655
H           4.4476049    -0.6533666    -0.7470324
C           4.3811030    -1.1442974     1.9509434
H           3.9586972    -1.1886136     2.9543691
H           4.9772688    -0.2276804     1.8695223
C           5.2173181    -2.3852530     1.5531623
H           4.9455185    -3.2448391     2.1730752
H           6.2864097    -2.2012729     1.7000614
O           1.6763868    -1.6183492     2.8239670
O           1.6500488    -3.0582358     0.7141571
27
202_C10H13NO2S_0-6-11-12 (-75,) energy =    -992.2075251
C           0.3215622     0.5456381     1.1973343
H           0.7905788     0.8126642     2.1384062
C          -0.5936431     1.3960918     0.5806978
H          -0.8420799     2.3464262     1.0444948
C          -1.1952640     1.0247637    -0.6258186
H          -1.9094600     1.6916792    -1.1009270
C           0.6285701    -0.6728336     0.5869436
C          -0.8894448    -0.2018657    -1.2169990
H          -1.3664987    -0.4942927    -2.1480744
C           0.0248053    -1.0640679    -0.6079676
H           0.2604620    -2.0322780    -1.0364326
S           1.7784307    -1.7892162     1.3989288
N           3.2666639    -1.0090179     1.0925598
C           3.8700193    -1.3007364    -0.2289935
H           3.0981619    -1.4782604    -0.9802902
C           4.8171957    -2.5025254    -0.0135920
H           5.7028646    -2.4317893    -0.6528356
H           4.2964037    -3.4308747    -0.2601806
H           4.4260501    -0.4032445    -0.5252324
C           4.3419869    -1.2876874     2.0762911
H           3.9099657    -1.4767923     3.0591229
H           4.9483943    -0.3765910     2.1408145
C           5.1679202    -2.4641667     1.5003399
H           4.8865741    -3.4041455     1.9840903
H           6.2379547    -2.3135686     1.6755302
O           1.5675583    -1.7100591     2.8491014
O           1.6898716    -3.0857467     0.7055579
27
202_C10H13NO2S_0-6-11-12 (-60,) energy =    -992.2077474
C           0.4922394     0.5880192     1.0342971
H           1.1065091     0.9153985     1.8662415
C          -0.4375937     1.4454443     0.4506451
H          -0.5535433     2.4562223     0.8313454
C          -1.2213008     1.0062312    -0.6214375
H          -1.9452921     1.6790743    -1.0728385
C           0.6303656    -0.7077781     0.5290389
C          -1.0786958    -0.2920845    -1.1116000
H          -1.6907798    -0.6325963    -1.9419076
C          -0.1491329    -1.1606162    -0.5347660
H          -0.0229308    -2.1759160    -0.8945852
S           1.7762027    -1.8474151     1.3157417
N           3.2465615    -1.0004996     1.1296008
C           3.8988291    -1.1669459    -0.1910102
H           3.1546569    -1.2997512    -0.9789792
C           4.8688249    -2.3603049    -0.0429882
H           5.7698073    -2.2200966    -0.6483974
H           4.3770964    -3.2770766    -0.3770402
H           4.4403267    -0.2352227    -0.3937400
C           4.2975197    -1.3337134     2.1228097
H           3.8393611    -1.6163970     3.0707757
H           4.8745974    -0.4156420     2.2840766
C           5.1755894    -2.4351873     1.4791267
H           4.9105544    -3.4192690     1.8766383
H           6.2349767    -2.2682893     1.6984798
O           1.5093840    -1.8835042     2.7585722
O           1.7544562    -3.0960340     0.5340880
27
202_C10H13NO2S_0-6-11-12 (-45,) energy =    -992.2074445
C           0.6564288     0.5987359     0.8636435
H           1.4005894     0.9547427     1.5674302
C          -0.2837466     1.4666965     0.3112505
H          -0.2799223     2.5164855     0.5906539
C          -1.2284267     0.9884557    -0.6012994
H          -1.9583955     1.6705786    -1.0284110
C           0.6389814    -0.7468646     0.4872726
C          -1.2343772    -0.3583629    -0.9677391
H          -1.9674850    -0.7254668    -1.6802433
C          -0.2958276    -1.2378227    -0.4252075
H          -0.2742204    -2.2855464    -0.7048680
S           1.7822293    -1.9143064     1.2370493
N           3.2348469    -1.0209505     1.1769462
C           3.9440154    -1.0758383    -0.1242868
H           3.2353633    -1.1686550    -0.9498641
C           4.9361506    -2.2550088    -0.0207954
H           5.8551176    -2.0546309    -0.5804961
H           4.4783994    -3.1565285    -0.4349906
H           4.4696206    -0.1200420    -0.2371816
C           4.2523721    -1.4021567     2.1879236
H           3.7622474    -1.7679775     3.0903042
H           4.7952537    -0.4847706     2.4438356
C           5.1886068    -2.4284388     1.5031066
H           4.9426175    -3.4459773     1.8204416
H           6.2331203    -2.2448870     1.7743303
O           1.4604264    -2.0735858     2.6607339
O           1.8191411    -3.1012254     0.3647540
27
202_C10H13NO2S_0-6-11-12 (-30,) energy =    -992.2065847
C           0.7495392     0.6100150     0.6758113
H           1.6021240     0.9632776     1.2443258
C          -0.2123626     1.4961360     0.1895006
H          -0.1098648     2.5599058     0.3847352
C          -1.2993837     1.0196590    -0.5464331
H          -2.0450962     1.7145623    -0.9227011
C           0.6081015    -0.7539487     0.4133034
C          -1.4265217    -0.3467842    -0.8062726
H          -2.2675973    -0.7167761    -1.3856208
C          -0.4684355    -1.2421135    -0.3320749
H          -0.5402547    -2.3033444    -0.5449582
S           1.7732509    -1.9615690     1.0620816
N           3.2070698    -1.0444375     1.1369318
C           4.0179448    -1.0456640    -0.1044487
H           3.3807892    -1.1462664    -0.9849087
C           5.0345859    -2.1958510     0.0586979
H           5.9852361    -1.9639480    -0.4315670
H           4.6325562    -3.1040159    -0.3972885
H           4.5201192    -0.0720856    -0.1568865
C           4.1514409    -1.4084437     2.2216552
H           3.6039273    -1.8170956     3.0705903
H           4.6342526    -0.4776065     2.5415580
C           5.1816787    -2.3808272     1.5949878
H           4.9608210    -3.4131224     1.8819640
H           6.1938211    -2.1541768     1.9448903
O           1.4157199    -2.2878839     2.4487404
O           1.8626955    -3.0428068     0.0661302
27
202_C10H13NO2S_0-6-11-12 (-15,) energy =    -992.2053973
C           0.8088777     0.6174442     0.4871289
H           1.7469902     0.9593128     0.9083752
C          -0.1786309     1.5210102     0.0883182
H          -0.0047409     2.5878200     0.1977338
C          -1.3802733     1.0580265    -0.4487101
H          -2.1450156     1.7656406    -0.7568299
C           0.5751380    -0.7498499     0.3408827
C          -1.5995577    -0.3142830    -0.5969015
H          -2.5315785    -0.6756542    -1.0219649
C          -0.6194769    -1.2256992    -0.2099490
H          -0.7708321    -2.2920318    -0.3422243
S           1.7763486    -1.9906079     0.8474415
N           3.1933039    -1.0690540     1.0434200
C           4.1064854    -1.0422535    -0.1238840
H           3.5500384    -1.1623425    -1.0542686
C           5.1363454    -2.1640509     0.1280437
H           6.1195604    -1.9051608    -0.2771815
H           4.8014519    -3.0814902    -0.3630931
H           4.5851953    -0.0553910    -0.1336231
C           4.0476395    -1.4073570     2.2072032
H           3.4406992    -1.8368170     3.0032706
H           4.4753956    -0.4650591     2.5694857
C           5.1541229    -2.3494081     1.6712924
H           4.9354422    -3.3876618     1.9378504
H           6.1257568    -2.0978267     2.1081827
O           1.4022125    -2.4944252     2.1756318
O           1.9061420    -2.9353909    -0.2736241
27
202_C10H13NO2S_0-6-11-12 (0,) energy =    -992.2047148
C           0.8153114     0.6130381     0.3221274
H           1.8211241     0.9381856     0.5610898
C          -0.2134882     1.5347870     0.1123371
H          -0.0039728     2.5981808     0.1873768
C          -1.5013819     1.0938327    -0.1911526
H          -2.2979495     1.8147034    -0.3532485
C           0.5359517    -0.7490376     0.2240673
C          -1.7691865    -0.2749415    -0.2871962
H          -2.7716975    -0.6199502    -0.5236173
C          -0.7519118    -1.2035388    -0.0810842
H          -0.9527999    -2.2675553    -0.1557182
S           1.7920425    -2.0142334     0.4705219
N           3.1935236    -1.1156254     0.8062973
C           4.2836704    -1.1764856    -0.1943954
H           3.8821083    -1.3762719    -1.1871427
C           5.2463906    -2.2671728     0.3184498
H           6.2845063    -2.0490471     0.0486551
H           4.9800421    -3.2276073    -0.1326808
H           4.7673009    -0.1917314    -0.2036042
C           3.8420992    -1.3370219     2.1202006
H           3.1166825    -1.7134941     2.8400644
H           4.2050300    -0.3627174     2.4686139
C           5.0212035    -2.3072200     1.8558739
H           4.7617891    -3.3184115     2.1822091
H           5.9114129    -2.0000705     2.4139166
O           1.4195205    -2.7757365     1.6709802
O           1.9615439    -2.7143010    -0.8110298
27
202_C10H13NO2S_0-6-11-12 (15,) energy =    -992.2053749
C           0.8857359     0.6454346     0.1518291
H           1.9053044     1.0116528     0.1784547
C          -0.2005112     1.5212746     0.2112492
H          -0.0232049     2.5902176     0.2900538
C          -1.5050329     1.0279327     0.1714511
H          -2.3462507     1.7140130     0.2176179
C           0.6461865    -0.7250781     0.0517820
C          -1.7318877    -0.3480118     0.0786284
H          -2.7470335    -0.7338352     0.0554925
C          -0.6570376    -1.2328723     0.0264785
H          -0.8227491    -2.3041982    -0.0213819
S           1.9788669    -1.9302011    -0.0512132
N           3.3318066    -1.0182417     0.4354891
C           4.5951709    -1.2892511    -0.2909738
H           4.3823214    -1.5894387    -1.3162438
C           5.3393728    -2.3536170     0.5444322
H           6.4232743    -2.2064589     0.5043789
H           5.1286551    -3.3523198     0.1498931
H           5.1523180    -0.3448045    -0.3141577
C           3.6790943    -1.1123929     1.8744701
H           2.7917793    -1.3238419     2.4724093
H           4.0685889    -0.1321589     2.1738944
C           4.7695293    -2.2060840     1.9833809
H           4.3239448    -3.1461112     2.3184889
H           5.5380922    -1.9229914     2.7094560
O           1.6695998    -2.9880782     0.9242308
O           2.1860430    -2.2883732    -1.4607866
27
202_C10H13NO2S_0-6-11-12 (30,) energy =    -992.2065797
C           0.9052746     0.6628275    -0.0349663
H           1.9059207     1.0560144    -0.1730714
C          -0.1931364     1.5107471     0.1116685
H          -0.0461069     2.5868076     0.0861806
C          -1.4724322     0.9806495     0.2925856
H          -2.3237004     1.6462029     0.4063553
C           0.7033739    -0.7180598     0.0046773
C          -1.6594758    -0.4028968     0.3348497
H          -2.6532725    -0.8155387     0.4832562
C          -0.5695704    -1.2616742     0.1972629
H          -0.6947223    -2.3378580     0.2511680
S           2.0604704    -1.8734137    -0.2400810
N           3.3784676    -0.9804174     0.3666719
C           4.6923335    -1.2892041    -0.2478868
H           4.5597868    -1.5732535    -1.2916091
C           5.3298159    -2.3821641     0.6388499
H           6.4154995    -2.2588380     0.7034732
H           5.1365423    -3.3717321     0.2139033
H           5.2776550    -0.3624639    -0.2148681
C           3.5950916    -1.1036309     1.8290635
H           2.6511611    -1.2852437     2.3459719
H           3.9903475    -0.1408782     2.1736812
C           4.6307168    -2.2382136     2.0199017
H           4.1215797    -3.1665545     2.2898938
H           5.3353485    -1.9964316     2.8217675
O           1.7681659    -3.0555877     0.5883701
O           2.3029165    -2.0457181    -1.6782443
27
202_C10H13NO2S_0-6-11-12 (45,) energy =    -992.2075006
C           0.8880137     0.6952944    -0.2311068
H           1.8454215     1.1076967    -0.5296358
C          -0.2209637     1.5171477    -0.0368667
H          -0.1304382     2.5885503    -0.1917944
C          -1.4437052     0.9659717     0.3569699
H          -2.3044063     1.6119409     0.5070342
C           0.7561236    -0.6798259    -0.0217685
C          -1.5616742    -0.4096610     0.5620452
H          -2.5112756    -0.8365602     0.8718328
C          -0.4576821    -1.2429692     0.3749315
H          -0.5232537    -2.3128790     0.5402783
S           2.1382265    -1.7848082    -0.3397552
N           3.4148830    -0.9218523     0.3938964
C           4.7635173    -1.2385716    -0.1370571
H           4.7049585    -1.4580862    -1.2032667
C           5.2960865    -2.3980724     0.7309527
H           6.3835797    -2.3488405     0.8450469
H           5.0564389    -3.3565673     0.2607830
H           5.3695774    -0.3341313    -0.0049512
C           3.5249921    -1.1121780     1.8616791
H           2.5449467    -1.3104938     2.2998141
H           3.8925378    -0.1662434     2.2756100
C           4.5454983    -2.2576747     2.0843725
H           4.0260915    -3.1858550     2.3341935
H           5.2221470    -2.0196650     2.9111721
O           1.8501264    -3.0501490     0.3580860
O           2.4322993    -1.8029068    -1.7781558
27
202_C10H13NO2S_0-6-11-12 (60,) energy =    -992.2077887
C           0.7962202     0.7035675    -0.4635981
H           1.6882702     1.0983916    -0.9379654
C          -0.3108013     1.5152616    -0.2267052
H          -0.2852791     2.5602420    -0.5222708
C          -1.4514070     0.9866619     0.3865884
H          -2.3121869     1.6244623     0.5679748
C           0.7475772    -0.6374459    -0.0733026
C          -1.4891521    -0.3559284     0.7642233
H          -2.3768533    -0.7663046     1.2370635
C          -0.3851385    -1.1796593     0.5330296
H          -0.3914473    -2.2275688     0.8126211
S           2.1387456    -1.7155044    -0.4364113
N           3.3899552    -0.9174254     0.4090763
C           4.7571715    -1.2088753    -0.0880133
H           4.7411263    -1.3536628    -1.1684850
C           5.2510561    -2.4297199     0.7183297
H           6.3308797    -2.3853344     0.8919455
H           5.0432488    -3.3517246     0.1671573
H           5.3617749    -0.3202739     0.1298973
C           3.4415325    -1.2133372     1.8617868
H           2.4423852    -1.4183083     2.2512234
H           3.8125959    -0.3066758     2.3533834
C           4.4310450    -2.3926630     2.0382162
H           3.8840297    -3.3282999     2.1761113
H           5.0646388    -2.2416952     2.9179082
O           1.8336346    -3.0340583     0.1461439
O           2.4771097    -1.6058883    -1.8604307
27
202_C10H13NO2S_0-6-11-12 (75,) energy =    -992.2075324
C           0.7135901     0.6755477    -0.6832021
H           1.5184281     1.0276344    -1.3196947
C          -0.3983782     1.4730260    -0.4213165
H          -0.4629674     2.4668960    -0.8549449
C          -1.4308346     0.9934127     0.3908380
H          -2.2961703     1.6194849     0.5903544
C           0.7792417    -0.5999694    -0.1170265
C          -1.3588550    -0.2883439     0.9379676
H          -2.1673489    -0.6639167     1.5586740
C          -0.2503298    -1.0980161     0.6812977
H          -0.1830253    -2.1060689     1.0760848
S           2.1926088    -1.6459981    -0.4857746
N           3.4021186    -0.9161212     0.4760629
C           4.7912722    -1.1484937     0.0099090
H           4.8185201    -1.2035627    -1.0785382
C           5.2728745    -2.4259924     0.7313712
H           6.3450544    -2.3843982     0.9479708
H           5.0978317    -3.3017034     0.0992149
H           5.3740670    -0.2739816     0.3234642
C           3.4037811    -1.3299314     1.8999911
H           2.3948973    -1.5794703     2.2335008
H           3.7411552    -0.4619915     2.4781875
C           4.4056899    -2.5062599     2.0186190
H           3.8703119    -3.4576852     2.0622712
H           5.0052847    -2.4167844     2.9300245
O           1.8674752    -3.0030013    -0.0137327
O           2.5923313    -1.4245760    -1.8804086
27
202_C10H13NO2S_0-6-11-12 (90,) energy =    -992.2068527
C           0.6120218     0.6200717    -0.8801341
H           1.3421122     0.8768347    -1.6400218
C          -0.4982617     1.4285757    -0.6400029
H          -0.6359322     2.3379991    -1.2179336
C          -1.4345301     1.0660412     0.3318229
H          -2.2989667     1.6986223     0.5138758
C           0.7741094    -0.5462766    -0.1300983
C          -1.2713064    -0.1143695     1.0595361
H          -2.0097188    -0.4052907     1.8012691
C          -0.1669483    -0.9345864     0.8250100
H          -0.0462286    -1.8739805     1.3537203
S           2.1878683    -1.6039819    -0.4653554
N           3.3660422    -0.9629633     0.5932499
C           4.7673396    -1.0472696     0.1159842
H           4.8021743    -0.9633062    -0.9699115
C           5.3244386    -2.3747365     0.6748413
H           6.3903859    -2.2948466     0.9107205
H           5.2105231    -3.1704051    -0.0677845
H           5.2945145    -0.1867609     0.5455632
C           3.3910097    -1.5486262     1.9544321
H           2.3997740    -1.8950790     2.2492692
H           3.6835584    -0.7429052     2.6377574
C           4.4549880    -2.6744826     1.9279504
H           3.9699326    -3.6492624     1.8350165
H           5.0424876    -2.6792025     2.8515493
O           1.8121416    -2.9701835    -0.0661214
O           2.6554057    -1.3251324    -1.8282873
27
202_C10H13NO2S_0-6-11-12 (105,) energy =    -992.2074774
C           0.9968037    -0.0120634    -1.0837115
H           1.7392134    -0.1960517    -1.8528551
C           0.0813500     1.0367566    -1.1939816
H           0.1185327     1.6957864    -2.0567169
C          -0.8821001     1.2315922    -0.2033502
H          -1.5941933     2.0472868    -0.2936119
C           0.9324478    -0.8510178     0.0287925
C          -0.9402197     0.3770738     0.9019945
H          -1.6969811     0.5260943     1.6669101
C          -0.0309455    -0.6715211     1.0243410
H          -0.0669434    -1.3493619     1.8705259
S           2.0994165    -2.2085666     0.1795365
N           3.1591642    -1.6022224     1.3757314
C           4.2145874    -0.6896500     0.8736862
H           3.8662656    -0.1343168     0.0010235
C           5.4624166    -1.5653790     0.5956826
H           6.3757298    -1.0565619     0.9199468
H           5.5533660    -1.7671548    -0.4742379
H           4.4087422     0.0341082     1.6736817
C           3.8890692    -2.6415088     2.1429603
H           3.2653584    -3.5273614     2.2640344
H           4.0783910    -2.2172770     3.1363923
C           5.2098922    -2.8830919     1.3802371
H           5.0944266    -3.7221967     0.6876390
H           6.0284814    -3.1297042     2.0638329
O           1.4124889    -3.3546308     0.7866554
O           2.7747310    -2.3515620    -1.1217603
27
202_C10H13NO2S_0-6-11-12 (120,) energy =    -992.2077755
C           0.8873648    -0.1141462    -1.1944912
H           1.5395569    -0.3700729    -2.0224480
C          -0.0514982     0.9150590    -1.2960402
H          -0.1329623     1.4800675    -2.2202188
C          -0.8827426     1.2129060    -0.2157797
H          -1.6122188     2.0139393    -0.2983742
C           0.9794339    -0.8288249    -0.0006897
C          -0.7836507     0.4829352     0.9732458
H          -1.4350168     0.7149228     1.8110355
C           0.1483701    -0.5460237     1.0865998
H           0.2366691    -1.1223941     2.0013480
S           2.1445830    -2.1919740     0.1120212
N           3.1393212    -1.6568048     1.3937740
C           4.1940577    -0.6917052     0.9983487
H           3.8668394    -0.0855157     0.1514072
C           5.4698837    -1.5229286     0.7107260
H           6.3585392    -1.0229710     1.1088266
H           5.6083761    -1.6443247    -0.3661941
H           4.3416299    -0.0207294     1.8524005
C           3.8599524    -2.7370127     2.1114901
H           3.2497105    -3.6399635     2.1415166
H           4.0016601    -2.3847012     3.1403059
C           5.2138781    -2.8987489     1.3868066
H           5.1425655    -3.6867793     0.6311565
H           6.0102690    -3.1802971     2.0829814
O           1.4456109    -3.3825334     0.6103185
O           2.8755355    -2.2489070    -1.1659824
27
202_C10H13NO2S_0-6-11-12 (135,) energy =    -992.2076146
C           0.7406533    -0.1940411    -1.2750592
H           1.3001955    -0.5105706    -2.1486262
C          -0.2382399     0.7980516    -1.3573992
H          -0.4528325     1.2644013    -2.3147036
C          -0.9372472     1.1882784    -0.2143451
H          -1.6975911     1.9615071    -0.2824060
C           1.0084307    -0.7789374    -0.0369839
C          -0.6629803     0.5887233     1.0187438
H          -1.2088458     0.8945595     1.9067504
C           0.3096013    -0.4046557     1.1138887
H           0.5374707    -0.8762458     2.0635796
S           2.1898769    -2.1317897     0.0280940
N           3.1184234    -1.6821312     1.3870548
C           4.1950561    -0.7014192     1.1050577
H           3.9169453    -0.0500648     0.2743183
C           5.4818811    -1.5236406     0.8430219
H           6.3493189    -1.0513959     1.3148401
H           5.6777334    -1.5868191    -0.2300068
H           4.2966573    -0.0784691     2.0011830
C           3.7930531    -2.8047072     2.0830814
H           3.1798973    -3.7042549     2.0264098
H           3.8772039    -2.5116550     3.1365430
C           5.1852632    -2.9329294     1.4276794
H           5.1548660    -3.6783502     0.6272643
H           5.9406875    -3.2563539     2.1507423
O           1.4938449    -3.3693476     0.4012788
O           2.9735634    -2.0840691    -1.2184597
27
202_C10H13NO2S_0-6-11-12 (150,) energy =    -992.2068869
C           0.6028415    -0.2822499    -1.3387760
H           1.0623837    -0.6682693    -2.2424091
C          -0.4171788     0.6672439    -1.3973378
H          -0.7683335     1.0204585    -2.3626755
C          -0.9810693     1.1639877    -0.2203861
H          -1.7730786     1.9061116    -0.2705897
C           1.0512584    -0.7219044    -0.0909030
C          -0.5295183     0.7102728     1.0213079
H          -0.9685010     1.0972192     1.9366052
C           0.4852725    -0.2439536     1.0931848
H           0.8477853    -0.6068301     2.0482450
S           2.2662813    -2.0472799    -0.0700858
N           3.1244191    -1.6887281     1.3588186
C           4.2198417    -0.7017218     1.1937507
H           3.9893788     0.0009003     0.3908162
C           5.5107044    -1.5203870     0.9465583
H           6.3627473    -1.0764533     1.4708923
H           5.7454983    -1.5367450    -0.1204131
H           4.2799755    -0.1361263     2.1308535
C           3.7519447    -2.8544208     2.0275821
H           3.1418031    -3.7451008     1.8782695
H           3.7702175    -2.6255711     3.0999008
C           5.1830824    -2.9525299     1.4546483
H           5.2078112    -3.6664952     0.6259077
H           5.8925190    -3.3021774     2.2112999
O           1.5883372    -3.3281327     0.1673956
O           3.0997532    -1.8838113    -1.2737712
27
202_C10H13NO2S_0-6-11-12 (165,) energy =    -992.2055791
C           0.3944037    -0.3832637    -1.3733695
H           0.7485120    -0.8365289    -2.2935071
C          -0.6786925     0.5054435    -1.3835299
H          -1.1764057     0.7365974    -2.3209539
C          -1.1100532     1.0989454    -0.1942057
H          -1.9451693     1.7938849    -0.2069637
C           1.0321465    -0.6691144    -0.1616741
C          -0.4707548     0.8001113     1.0096979
H          -0.8069885     1.2599280     1.9347857
C           0.6004606    -0.0952814     1.0346252
H           1.1022786    -0.3458438     1.9619159
S           2.3277598    -1.9162830    -0.2113268
N           3.1195180    -1.6695740     1.2762746
C           4.2765873    -0.7425815     1.2311313
H           4.1480867    -0.0026638     0.4398672
C           5.5304733    -1.6301810     1.0464376
H           6.3742093    -1.2462275     1.6283739
H           5.8267483    -1.6407257    -0.0054555
H           4.3002076    -0.2152062     2.1921533
C           3.6212236    -2.8889735     1.9540445
H           2.9820185    -3.7389224     1.7175869
H           3.5573323    -2.6971617     3.0318941
C           5.0906767    -3.0496357     1.5037200
H           5.1535543    -3.7570877     0.6713420
H           5.7138432    -3.4405768     2.3142359
O           1.7076702    -3.2461841    -0.1459402
O           3.1986468    -1.5821647    -1.3503288
27
202_C10H13NO2S_0-6-11-12 (180,) energy =    -992.2047128
C           0.2284941    -0.4422708    -1.3889298
H           0.5206444    -0.9183581    -2.3195474
C          -0.9662104     0.2681989    -1.3016101
H          -1.6095573     0.3464182    -2.1733552
C          -1.3353419     0.8774763    -0.0987625
H          -2.2684036     1.4305386    -0.0357673
C           1.0503107    -0.5372083    -0.2602634
C          -0.5075297     0.7766344     1.0192333
H          -0.7923575     1.2501710     1.9546329
C           0.6937832     0.0673361     0.9440745
H           1.3502035    -0.0191612     1.8020584
S           2.5766645    -1.4697472    -0.4599045
N           3.2987269    -1.3744963     1.0741982
C           4.6245341    -0.7186999     1.1589094
H           4.7528171    -0.0173307     0.3356098
C           5.6647216    -1.8658073     1.1697633
H           6.4744536    -1.6543119     1.8752990
H           6.1131079    -1.9775364     0.1783746
H           4.6465058    -0.1581776     2.1012156
C           3.4287957    -2.6389976     1.8341382
H           2.6518759    -3.3437330     1.5402655
H           3.2946625    -2.3919517     2.8945595
C           4.8618710    -3.1403386     1.5545349
H           4.8450460    -3.8485087     0.7209054
H           5.2826417    -3.6583612     2.4220988
O           2.2027343    -2.8651816    -0.7318170
O           3.4134027    -0.7404390    -1.4231243
