22
074_C10H10N2_4-6-17-16 (-165,) energy =    -496.5930321
C           5.6319839     1.6837153     1.1388616
H           6.4222482     2.3923232     1.3713433
C           5.5899542     1.0506667    -0.1019488
H           6.3409817     1.2608455    -0.8584268
C           4.5659124     0.1496639    -0.3726886
H           4.5260648    -0.3023353    -1.3606482
C           3.5660746    -0.1484547     0.5727917
C           3.6038200     0.4980584     1.8358916
C           2.5874955     0.2513084     2.9248496
H           2.5040772    -0.8128535     3.1669533
H           1.5846001     0.5613980     2.6179892
H           2.8673633     0.7987735     3.8309290
C           4.6446922     1.4030740     2.0815514
H           4.6777143     1.8974776     3.0494693
C           0.7685688    -2.3795461     0.1723536
H          -0.2024843    -2.7484061     0.4740710
N           1.3825504    -1.3559390     0.8478262
C           2.5369296    -1.1405223     0.2292497
N           2.6717962    -2.0133606    -0.8292644
H           3.4858411    -2.1185097    -1.4154107
C           1.5508587    -2.8109012    -0.8697327
H           1.4227418    -3.5834477    -1.6129864
22
074_C10H10N2_4-6-17-16 (-150,) energy =    -496.5934177
C           5.6143382     1.7039788     1.1048203
H           6.4030449     2.4173216     1.3283049
C           5.5425483     1.0994404    -0.1488752
H           6.2665380     1.3398098    -0.9225745
C           4.5199662     0.1922490    -0.4104964
H           4.4426647    -0.2430837    -1.4039690
C           3.5605207    -0.1387100     0.5634091
C           3.6250456     0.4797039     1.8370289
C           2.6353998     0.1850692     2.9387750
H           2.5483606    -0.8904775     3.1263037
H           1.6296786     0.5231505     2.6736407
H           2.9427576     0.6775725     3.8670016
C           4.6607186     1.3919469     2.0734598
H           4.7192917     1.8653854     3.0507002
C           0.6939689    -2.2553359     0.0590148
H          -0.3327396    -2.5298200     0.2606523
N           1.2860692    -1.1939383     0.6969296
C           2.5236743    -1.1256213     0.2260247
N           2.7346875    -2.1218770    -0.7011441
H           3.6118599    -2.3305206    -1.1546224
C           1.5727240    -2.8523535    -0.8109150
H           1.4877776    -3.7016667    -1.4719844
22
074_C10H10N2_4-6-17-16 (-135,) energy =    -496.5927708
C           5.5970093     1.7167274     1.0640484
H           6.3765461     2.4422845     1.2807172
C           5.5064205     1.1354792    -0.1993024
H           6.2056086     1.4073616    -0.9853119
C           4.4950712     0.2119280    -0.4543467
H           4.3985269    -0.2155665    -1.4494963
C           3.5745818    -0.1569570     0.5407852
C           3.6544890     0.4397642     1.8215101
C           2.6852820     0.0967567     2.9278016
H           2.6416766    -0.9843420     3.1031726
H           1.6671102     0.4038920     2.6722062
H           2.9797975     0.5853775     3.8619746
C           4.6754479     1.3686517     2.0525189
H           4.7492827     1.8264661     3.0361939
C           0.6605961    -2.1716170    -0.0921491
H          -0.4004338    -2.3635538    -0.0051494
N           1.2385052    -1.0768969     0.5038835
C           2.5277970    -1.1387065     0.2069886
N           2.7868237    -2.2392388    -0.5771773
H           3.6998698    -2.5355870    -0.8901965
C           1.5997145    -2.9120639    -0.7668657
H           1.5403311    -3.8239406    -1.3417173
22
074_C10H10N2_4-6-17-16 (-120,) energy =    -496.5911628
C           5.5823385     1.7494708     1.0622217
H           6.3558094     2.4815114     1.2792275
C           5.4655127     1.2079694    -0.2165375
H           6.1382293     1.5177908    -1.0115561
C           4.4619722     0.2750564    -0.4744945
H           4.3455181    -0.1319080    -1.4759495
C           3.5823429    -0.1404701     0.5362623
C           3.6853453     0.4177000     1.8305483
C           2.7403968     0.0183755     2.9394427
H           2.7737006    -1.0624030     3.1240678
H           1.7048713     0.2573000     2.6796368
H           2.9980056     0.5298122     3.8721339
C           4.6959136     1.3561027     2.0663754
H           4.7888815     1.7862951     3.0608600
C           0.6390886    -2.0674274    -0.2256633
H          -0.4354997    -2.1876106    -0.2586775
N           1.2132329    -0.9396715     0.3115504
C           2.5204654    -1.1126828     0.2017569
N           2.7986909    -2.3109477    -0.4117508
H           3.7222988    -2.6796670    -0.5872698
C           1.6000724    -2.9351716    -0.6826341
H           1.5489583    -3.9077876    -1.1483648
22
074_C10H10N2_4-6-17-16 (-105,) energy =    -496.5891958
C           5.5773864     1.7672168     1.0546640
H           6.3528170     2.4934203     1.2843148
C           5.4270971     1.2875676    -0.2453703
H           6.0768955     1.6391351    -1.0420593
C           4.4226464     0.3596260    -0.5203130
H           4.2832185    -0.0071753    -1.5340120
C           3.5759524    -0.1070846     0.4939683
C           3.7123778     0.3878742     1.8089333
C           2.7888060    -0.0697384     2.9135048
H           2.8412103    -1.1560944     3.0573401
H           1.7462500     0.1652874     2.6756049
H           3.0467367     0.4089892     3.8631643
C           4.7236734     1.3204637     2.0646956
H           4.8413028     1.7047650     3.0752391
C           0.6286364    -1.9925757    -0.3714468
H          -0.4387513    -2.0656086    -0.5315817
N           1.2077770    -0.8176466     0.0519974
C           2.5014379    -1.0700878     0.1509194
N           2.7719267    -2.3666911    -0.2135840
H           3.6851129    -2.7978946    -0.2157678
C           1.5765807    -2.9695514    -0.5450124
H           1.5193963    -4.0008129    -0.8593616
22
074_C10H10N2_4-6-17-16 (-90,) energy =    -496.5880508
C           5.8502359     1.4023363     1.5962036
H           6.6301351     2.0736214     1.9463263
C           6.1846506     0.1795655     1.0164999
H           7.2253153    -0.1124678     0.9058507
C           5.1695857    -0.6669502     0.5703948
H           5.4160276    -1.6180678     0.1062459
C           3.8230723    -0.3059508     0.7029701
C           3.4782516     0.9351669     1.2792943
C           2.0334430     1.3595465     1.4078804
H           1.4789180     0.7081107     2.0951795
H           1.5211917     1.3083169     0.4411093
H           1.9570538     2.3837330     1.7856074
C           4.5098204     1.7712475     1.7209434
H           4.2563979     2.7311931     2.1648634
C           1.3254381    -2.2919551    -0.9789539
H           0.7383636    -2.5360232    -1.8541842
N           2.2390748    -1.2608482    -0.9981279
C           2.7705004    -1.2317179     0.2108613
N           2.2277796    -2.2118023     1.0056167
H           2.4824674    -2.4011920     1.9643195
C           1.2995696    -2.8989101     0.2509349
H           0.7348706    -3.7285621     0.6490447
22
074_C10H10N2_4-6-17-16 (-75,) energy =    -496.5882650
C           5.8683159     1.4363415     1.6148877
H           6.6385146     2.1099434     1.9815527
C           6.2196142     0.2544469     0.9635224
H           7.2645536    -0.0043860     0.8165865
C           5.2170874    -0.5958144     0.4995433
H           5.4745550    -1.5166304    -0.0159611
C           3.8641900    -0.2768762     0.6756503
C           3.5017432     0.9213520     1.3276295
C           2.0520579     1.3107170     1.5124943
H           1.5609165     0.7150888     2.2930480
H           1.4803651     1.1607621     0.5905244
H           1.9654223     2.3623111     1.8027354
C           4.5227020     1.7612936     1.7884802
H           4.2550097     2.6917775     2.2839514
C           1.4800116    -2.3699027    -1.0375811
H           1.0034187    -2.7200130    -1.9434233
N           2.4736187    -1.4165441    -1.0767022
C           2.8332429    -1.2217017     0.1797974
N           2.0940540    -2.0135346     1.0248118
H           2.2037709    -2.0672575     2.0271395
C           1.2272034    -2.7592621     0.2533057
H           0.5384981    -3.4699581     0.6850165
22
074_C10H10N2_4-6-17-16 (-60,) energy =    -496.5894357
C           5.8727768     1.4148908     1.5655678
H           6.6488268     2.0883051     1.9198297
C           6.2104515     0.2567293     0.8652474
H           7.2514093     0.0151243     0.6689299
C           5.2010069    -0.5933565     0.4201576
H           5.4447178    -1.4967063    -0.1308099
C           3.8503217    -0.2985344     0.6581188
C           3.5014760     0.8755637     1.3612366
C           2.0603631     1.2569278     1.6229729
H           1.6365681     0.7210420     2.4833891
H           1.4217502     1.0379816     0.7613255
H           1.9794699     2.3257370     1.8444432
C           4.5318586     1.7151394     1.8030559
H           4.2730489     2.6286702     2.3337532
C           1.5954912    -2.5253082    -1.0474131
H           1.2269996    -2.9880667    -1.9531179
N           2.6390273    -1.6288242    -1.0781346
C           2.8335350    -1.2593546     0.1769371
N           1.9340644    -1.8809091     1.0093332
H           1.9055818    -1.7977452     2.0150026
C           1.1418508    -2.7025445     0.2355793
H           0.3575626    -3.3111398     0.6601652
22
074_C10H10N2_4-6-17-16 (-45,) energy =    -496.5909691
C           5.8634297     1.3868775     1.5034818
H           6.6456251     2.0633445     1.8376114
C           6.1832232     0.2452904     0.7676656
H           7.2173292     0.0184767     0.5232538
C           5.1667110    -0.6084387     0.3510474
H           5.3939800    -1.4989013    -0.2263201
C           3.8211813    -0.3373346     0.6505453
C           3.4903019     0.8208561     1.3901363
C           2.0629264     1.1962781     1.7283324
H           1.6966979     0.6805965     2.6282067
H           1.3724391     0.9596912     0.9128795
H           1.9883600     2.2685501     1.9346681
C           4.5304932     1.6642052     1.8019722
H           4.2830655     2.5648117     2.3595777
C           1.7133715    -2.7098026    -1.0305064
H           1.4566134    -3.2870307    -1.9086354
N           2.7892769    -1.8554562    -1.0281232
C           2.8195811    -1.3126334     0.1797611
N           1.7820371    -1.7873877     0.9460608
H           1.6079961    -1.5610872     1.9139142
C           1.0722246    -2.6897179     0.1833367
H           0.2058822    -3.2084767     0.5655241
22
074_C10H10N2_4-6-17-16 (-30,) energy =    -496.5921845
C           5.8700359     1.4005866     1.4653479
H           6.6555192     2.0806822     1.7837628
C           6.1741824     0.2752270     0.6980852
H           7.2009273     0.0640256     0.4120574
C           5.1542864    -0.5826668     0.3034239
H           5.3685105    -1.4603132    -0.2970941
C           3.8147381    -0.3380793     0.6567362
C           3.4997450     0.8065619     1.4265461
C           2.0868700     1.1737335     1.8285518
H           1.7408851     0.6076689     2.7070618
H           1.3693117     1.0024278     1.0193685
H           2.0316363     2.2308369     2.1056708
C           4.5456872     1.6544821     1.8149521
H           4.3070506     2.5412993     2.3978749
C           1.8422210    -2.8417057    -0.9879957
H           1.6890494    -3.5255399    -1.8120985
N           2.9445562    -2.0278925    -0.9328850
C           2.8251572    -1.3207814     0.1832617
N           1.6625497    -1.6576682     0.8361884
H           1.3590914    -1.3044526     1.7306271
C           1.0302837    -2.6358569     0.1002816
H           0.0921159    -3.0708678     0.4106502
22
074_C10H10N2_4-6-17-16 (-15,) energy =    -496.5925946
C           5.8580418     1.4091801     1.4274037
H           6.6452713     2.0962997     1.7255471
C           6.1457269     0.2977767     0.6341339
H           7.1627479     0.1039368     0.3042786
C           5.1237779    -0.5683209     0.2668696
H           5.3266562    -1.4357087    -0.3513945
C           3.7936339    -0.3536071     0.6762846
C           3.4952483     0.7803120     1.4708875
C           2.0996889     1.1337692     1.9392883
H           1.7485692     0.4719981     2.7459328
H           1.3668083     1.0949104     1.1247245
H           2.0797408     2.1487277     2.3467905
C           4.5446585     1.6371393     1.8299834
H           4.3158531     2.5107499     2.4361568
C           1.9180261    -2.9882006    -0.8720402
H           1.8456130    -3.7797072    -1.6058687
N           3.0448320    -2.2184768    -0.7637899
C           2.8109142    -1.3472385     0.2112564
N           1.5497431    -1.5475981     0.7251900
H           1.1343279    -1.0552898     1.4996308
C           0.9731079    -2.5964015     0.0444482
H          -0.0242901    -2.9446836     0.2672410
22
074_C10H10N2_4-6-17-16 (0,) energy =    -496.5925070
C           5.8367834     1.4450747     1.3800871
H           6.6176424     2.1482611     1.6566124
C           6.1214127     0.3447701     0.5706170
H           7.1304194     0.1754329     0.2045806
C           5.1071462    -0.5404387     0.2304276
H           5.3092656    -1.4007735    -0.3974779
C           3.7850450    -0.3593589     0.6825960
C           3.4924289     0.7569923     1.5049905
C           2.1160093     1.0640493     2.0553842
H           1.7401641     0.2633731     2.7075094
H           1.3780947     1.2357922     1.2593279
H           2.1412339     1.9747865     2.6604368
C           4.5343815     1.6352518     1.8335475
H           4.3088485     2.4917628     2.4646994
C           1.9902005    -3.1262328    -0.7251157
H           1.9811092    -4.0257674    -1.3259278
N           3.1395512    -2.4106740    -0.5321459
C           2.8168627    -1.3786618     0.2409251
N           1.4745582    -1.4277641     0.5445486
H           0.9612946    -0.7700505     1.1076641
C           0.9379630    -2.5381611    -0.0668235
H          -0.1073714    -2.7925172     0.0244047
22
074_C10H10N2_4-6-17-16 (15,) energy =    -496.5925945
C           5.8088826     1.4836823     1.3358818
H           6.5804869     2.2043528     1.5927769
C           6.0971664     0.3963188     0.5101006
H           7.0983908     0.2565422     0.1117027
C           5.0949018    -0.5115419     0.1930570
H           5.2993642    -1.3644231    -0.4445604
C           3.7843993    -0.3638207     0.6868109
C           3.4908490     0.7314847     1.5355721
C           2.1306644     0.9726059     2.1549076
H           1.7217173     0.0688307     2.6218363
H           1.3960204     1.3401115     1.4219890
H           2.1961171     1.7395139     2.9321795
C           4.5190040     1.6347387     1.8381489
H           4.2957221     2.4734681     2.4936726
C           2.0109630    -3.2279251    -0.5414810
H           2.0181508    -4.2150258    -0.9840040
N           3.1749746    -2.5642168    -0.2613736
C           2.8231460    -1.4010035     0.2750463
N           1.4511621    -1.3139015     0.3453223
H           0.9175758    -0.5212997     0.6643702
C           0.9228572    -2.4724758    -0.1787357
H          -0.1419160    -2.6426033    -0.2338580
22
074_C10H10N2_4-6-17-16 (30,) energy =    -496.5921845
C           5.7994203     1.5130077     1.3084097
H           6.5622100     2.2469769     1.5540716
C           6.0892952     0.4471500     0.4555449
H           7.0809799     0.3396559     0.0246931
C           5.0979266    -0.4789213     0.1526941
H           5.3036388    -1.3172750    -0.5042943
C           3.8040740    -0.3686462     0.6936862
C           3.5075133     0.7046599     1.5666164
C           2.1565877     0.8905473     2.2247602
H           1.7282933    -0.0582112     2.5644499
H           1.4253787     1.3656528     1.5527795
H           2.2433526     1.5481999     3.0950062
C           4.5226207     1.6269107     1.8539944
H           4.3025451     2.4477643     2.5329167
C           1.9958930    -3.2810939    -0.3599694
H           1.9806904    -4.3221762    -0.6534562
N           3.1661959    -2.6557115    -0.0138587
C           2.8393899    -1.4076753     0.2950697
N           1.4825048    -1.2257773     0.1632962
H           0.9833281    -0.3590452     0.2916299
C           0.9341498    -2.4153885    -0.2634563
H          -0.1246012    -2.5272767    -0.4430847
22
074_C10H10N2_4-6-17-16 (45,) energy =    -496.5909690
C           5.7680933     1.5370458     1.2878093
H           6.5211171     2.2834013     1.5265052
C           6.0595887     0.4968394     0.4046823
H           7.0407956     0.4231096    -0.0561422
C           5.0807825    -0.4473736     0.1112744
H           5.2888815    -1.2668418    -0.5692330
C           3.8050010    -0.3776718     0.6953582
C           3.5057574     0.6700765     1.5957139
C           2.1646879     0.7976112     2.2870476
H           1.7519574    -0.1772799     2.5644506
H           1.4167489     1.3037508     1.6591773
H           2.2597788     1.3966116     3.1981212
C           4.5056046     1.6112839     1.8737458
H           4.2877964     2.4127423     2.5762256
C           1.9172125    -3.3027023    -0.1858870
H           1.8498633    -4.3723344    -0.3327204
N           3.0888920    -2.7121968     0.2214972
C           2.8316520    -1.4156524     0.3063815
N           1.5213840    -1.1632956    -0.0232993
H           1.0885919    -0.2533007    -0.0764472
C           0.9284040    -2.3642649    -0.3486458
H          -0.1061636    -2.4311599    -0.6502293
22
074_C10H10N2_4-6-17-16 (60,) energy =    -496.5894358
C           5.7558019     1.5974321     1.2852759
H           6.4967651     2.3572620     1.5195361
C           6.0481589     0.5864802     0.3696814
H           7.0174776     0.5495518    -0.1197745
C           5.0846578    -0.3774656     0.0830413
H           5.2964322    -1.1745507    -0.6232186
C           3.8283793    -0.3520420     0.7067971
C           3.5283001     0.6652402     1.6393499
C           2.1999173     0.7262744     2.3621528
H           1.8508075    -0.2703429     2.6503624
H           1.4105043     1.1795026     1.7469220
H           2.2829036     1.3338365     3.2687552
C           4.5098809     1.6267996     1.9108839
H           4.2933958     2.4066443     2.6376108
C           1.8403536    -3.2685324     0.0029224
H           1.7012576    -4.3413269     0.0008606
N           3.0026119    -2.7006778     0.4723111
C           2.8463186    -1.3943560     0.3356231
N           1.6107501    -1.1078571    -0.1930297
H           1.2704153    -0.1880893    -0.4323820
C           0.9612134    -2.3030161    -0.4191385
H          -0.0309321    -2.3471298    -0.8427806
22
074_C10H10N2_4-6-17-16 (75,) energy =    -496.5882653
C           5.7429120     1.6048776     1.2747172
H           6.4819887     2.3665069     1.5093616
C           6.0184290     0.6296521     0.3168699
H           6.9723538     0.6215359    -0.2031750
C           5.0582408    -0.3396119     0.0305336
H           5.2604646    -1.1099953    -0.7081086
C           3.8242788    -0.3482770     0.6937869
C           3.5421285     0.6314495     1.6700263
C           2.2320892     0.6354200     2.4257193
H           1.9759975    -0.3687249     2.7801516
H           1.3958757     0.9760270     1.8013624
H           2.2845874     1.3019376     3.2920521
C           4.5178118     1.5978946     1.9423105
H           4.3145783     2.3522399     2.6990298
C           1.7227215    -3.2266998     0.1520557
H           1.4987146    -4.2763278     0.2875223
N           2.8588813    -2.6652039     0.6918331
C           2.8277926    -1.3906287     0.3446955
N           1.7020797    -1.1147679    -0.3930394
H           1.4670169    -0.2197397    -0.7971278
C           0.9882796    -2.2875320    -0.5265612
H           0.0622410    -2.3378396    -1.0794575
22
074_C10H10N2_4-6-17-16 (90,) energy =    -496.5880514
C           5.7215378     1.6147874     1.2709024
H           6.4668406     2.3711920     1.5028906
C           5.9567908     0.6838134     0.2603855
H           6.8866091     0.7029908    -0.3013784
C           4.9894087    -0.2810894    -0.0205506
H           5.1649133    -1.0199037    -0.7977933
C           3.7861481    -0.3219488     0.6947181
C           3.5469304     0.6111238     1.7259311
C           2.2683721     0.5689480     2.5305547
H           2.1091844    -0.4244093     2.9636929
H           1.3906437     0.7879389     1.9093778
H           2.2918471     1.3008725     3.3436727
C           4.5285128     1.5719617     1.9940384
H           4.3556430     2.2948110     2.7880371
C           1.6197474    -3.1755651     0.2739761
H           1.3179998    -4.1832984     0.5263302
N           2.6867238    -2.5723394     0.9033146
C           2.7820556    -1.3677477     0.3698635
N           1.8100286    -1.1787860    -0.5820562
H           1.6878151    -0.3461307    -1.1402281
C           1.0587892    -2.3337914    -0.6525811
H           0.2288159    -2.4401138    -1.3349123
22
074_C10H10N2_4-6-17-16 (105,) energy =    -496.5891961
C           5.7169605     1.6028547     1.2395953
H           6.4849470     2.3378009     1.4664076
C           5.8844421     0.7173859     0.1762964
H           6.7851887     0.7475563    -0.4305780
C           4.8893310    -0.2215394    -0.0951657
H           5.0174026    -0.9299697    -0.9095946
C           3.7198759    -0.2748641     0.6749541
C           3.5524116     0.6079498     1.7637317
C           2.3187769     0.5474783     2.6337714
H           2.2173881    -0.4366829     3.1026640
H           1.4055766     0.7125904     2.0485868
H           2.3568639     1.3069949     3.4207031
C           4.5628400     1.5406828     2.0223644
H           4.4421723     2.2292529     2.8554603
C           1.4960315    -3.0916817     0.3446004
H           1.1050058    -4.0384657     0.6924236
N           2.4556985    -2.4107487     1.0590596
C           2.7019968    -1.3096941     0.3705297
N           1.9422729    -1.2727344    -0.7734562
H           1.9504497    -0.5323566    -1.4602068
C           1.1604510    -2.4086213    -0.7973852
H           0.4632160    -2.6112746    -1.5963822
22
074_C10H10N2_4-6-17-16 (120,) energy =    -496.5911627
C           5.7013096     1.6124917     1.2319998
H           6.4789265     2.3381384     1.4555942
C           5.8227937     0.7684182     0.1297850
H           6.6984861     0.8190910    -0.5114455
C           4.8160689    -0.1592301    -0.1347072
H           4.9152891    -0.8411221    -0.9757140
C           3.6759339    -0.2424025     0.6784623
C           3.5555831     0.5990199     1.8076112
C           2.3581372     0.5211408     2.7252339
H           2.2759678    -0.4694954     3.1821915
H           1.4225170     0.6898205     2.1780331
H           2.4273458     1.2719992     3.5184633
C           4.5795943     1.5189413     2.0577402
H           4.4932444     2.1766118     2.9195476
C           1.3709345    -2.9920722     0.3879943
H           0.8787177    -3.8661672     0.7928774
N           2.2388799    -2.2459322     1.1500463
C           2.6520080    -1.2619830     0.3679268
N           2.0905755    -1.3709805    -0.8821252
H           2.2279503    -0.7241971    -1.6454087
C           1.2596026    -2.4707712    -0.8772144
H           0.6877749    -2.7647500    -1.7444437
22
074_C10H10N2_4-6-17-16 (135,) energy =    -496.5927700
C           5.6823925     1.6196750     1.1981696
H           6.4591938     2.3488780     1.4124147
C           5.7711900     0.8056572     0.0704782
H           6.6214197     0.8819681    -0.6017404
C           4.7654786    -0.1252865    -0.1798495
H           4.8497983    -0.7874719    -1.0382237
C           3.6559083    -0.2489205     0.6728874
C           3.5670114     0.5666047     1.8260501
C           2.4084888     0.4698992     2.7900524
H           2.3967195    -0.4979005     3.2998401
H           1.4461455     0.5521027     2.2723204
H           2.4656307     1.2649631     3.5403044
C           4.5920194     1.4904894     2.0594565
H           4.5280957     2.1270812     2.9388530
C           1.2282050    -2.8917432     0.4096444
H           0.6296659    -3.6802906     0.8456997
N           2.0456194    -2.1056645     1.1851468
C           2.6271995    -1.2542156     0.3538102
N           2.2132605    -1.4865665    -0.9376068
H           2.4698880    -0.9363376    -1.7443675
C           1.3101224    -2.5265590    -0.9115441
H           0.8256017    -2.8909323    -1.8048412
22
074_C10H10N2_4-6-17-16 (150,) energy =    -496.5934184
C           5.6577709     1.6514087     1.1870416
H           6.4255698     2.3911394     1.3971713
C           5.7297576     0.8641037     0.0393141
H           6.5582825     0.9712636    -0.6553848
C           4.7353371    -0.0788393    -0.2038023
H           4.8197436    -0.7205979    -1.0775724
C           3.6512526    -0.2512374     0.6757647
C           3.5782507     0.5417704     1.8482163
C           2.4523930     0.4210780     2.8472283
H           2.4642057    -0.5512864     3.3477481
H           1.4730692     0.4947976     2.3626036
H           2.5287191     1.2101924     3.6023170
C           4.5935744     1.4797121     2.0719329
H           4.5401360     2.0954977     2.9666477
C           1.0975397    -2.7718866     0.3998842
H           0.3917461    -3.4625532     0.8414303
N           1.8759709    -1.9537289     1.1801274
C           2.6230884    -1.2483712     0.3420620
N           2.3412008    -1.6027061    -0.9586536
H           2.7154141    -1.1601545    -1.7849347
C           1.3620523    -2.5705327    -0.9323155
H           0.9585039    -3.0050300    -1.8344963
22
074_C10H10N2_4-6-17-16 (165,) energy =    -496.5930321
C           5.6425785     1.6699959     1.1467955
H           6.4038313     2.4161654     1.3575445
C           5.6942580     0.9156296    -0.0238394
H           6.4994045     1.0557341    -0.7397909
C           4.7074765    -0.0336132    -0.2666725
H           4.7878173    -0.6412043    -1.1646331
C           3.6494534    -0.2564014     0.6352332
C           3.5965892     0.5074169     1.8304794
C           2.5069426     0.3555971     2.8645274
H           2.5135655    -0.6415649     3.3136739
H           1.5118174     0.4720320     2.4238561
H           2.6326724     1.1026440     3.6551829
C           4.6046173     1.4549538     2.0515408
H           4.5648595     2.0435826     2.9649549
C           0.9810379    -2.6546115     0.3314614
H           0.1753087    -3.2375075     0.7569823
N           1.7218968    -1.7952728     1.1019579
C           2.6215607    -1.2500891     0.2926266
N           2.4646815    -1.7452101    -0.9843738
H           2.9628825    -1.4414547    -1.8070657
C           1.4171003    -2.6377180    -0.9699054
H           1.0940606    -3.1579079    -1.8591270
22
074_C10H10N2_4-6-17-16 (180,) energy =    -496.5924797
C           5.6340528     1.6840378     1.1588513
H           6.4086266     2.4122521     1.3832173
C           5.6406399     0.9899153    -0.0493348
H           6.4191363     1.1647399    -0.7867692
C           4.6366918     0.0641959    -0.3090287
H           4.6686561    -0.4614378    -1.2597861
C           3.6043256    -0.2003799     0.6119421
C           3.5960057     0.5063340     1.8444822
C           2.5464601     0.3128570     2.9126194
H           2.5098036    -0.7234400     3.2611267
H           1.5419613     0.5292686     2.5373681
H           2.7561991     0.9673696     3.7651592
C           4.6198216     1.4336699     2.0803215
H           4.6134739     1.9744978     3.0235656
C           0.8593693    -2.5093838     0.2849059
H          -0.0361061    -2.9779350     0.6703429
N           1.5377606    -1.5655752     1.0110370
C           2.5749265    -1.1934473     0.2695865
N           2.5672899    -1.8880948    -0.9215979
H           3.2365185    -1.8086098    -1.6713148
C           1.4782071    -2.7286678    -0.9202060
H           1.2563679    -3.3804318    -1.7519065
