29
048_C14H13NO_0-5-12-10 (-165,) energy =    -671.2962309
N           1.2869086    -0.8022074    -0.4110551
C           1.3051996     0.1994570    -1.4806926
H           0.4955751     0.9242211    -1.3444272
H           1.1903293    -0.2722554    -2.4651953
H           2.2578966     0.7234084    -1.4780569
C           2.5074057    -1.2803107     0.0991961
C           5.6252531     1.4176733     1.3441923
H           6.4190507     2.0737492     1.6912539
C           5.8975268     0.0771037     1.0594373
H           6.9026831    -0.3146570     1.1891173
C           4.8774865    -0.7647651     0.6246368
H           5.0656818    -1.8150442     0.4285151
C           3.5780279    -0.2725599     0.4306324
C           3.3063589     1.0663306     0.7534495
H           2.2916550     1.4459606     0.6877076
C           4.3254876     1.9063871     1.2019764
H           4.1002019     2.9393224     1.4530005
O           2.6787197    -2.4577499     0.3830159
C          -2.3125596    -2.9978851     0.1039053
H          -3.2393908    -3.5459706     0.2471362
C          -1.3094297    -3.0317208     1.0770775
H          -1.4538095    -3.6064472     1.9881332
C          -0.1210584    -2.3322100     0.9031371
H           0.6431878    -2.3758991     1.6680196
C           0.0994248    -1.5806801    -0.2662729
C          -0.9120855    -1.5441445    -1.2375024
H          -0.7865849    -0.9730526    -2.1492821
C          -2.1046218    -2.2477351    -1.0492594
H          -2.8704058    -2.2023008    -1.8192069
29
048_C14H13NO_0-5-12-10 (-150,) energy =    -671.2977899
N           1.2794165    -0.8216920    -0.3141887
C           1.3263702     0.1983230    -1.3650231
H           0.4625985     0.8656373    -1.2830427
H           1.3218630    -0.2582054    -2.3633564
H           2.2381341     0.7827381    -1.2732780
C           2.4622069    -1.2727281     0.2861037
C           5.6820876     1.4258369     1.2234661
H           6.5047337     2.0847570     1.4880740
C           5.9371571     0.1092917     0.8307610
H           6.9586072    -0.2591486     0.7914170
C           4.8818039    -0.7388938     0.5038660
H           5.0622375    -1.7735204     0.2303965
C           3.5606631    -0.2711349     0.5299668
C           3.3103027     1.0458135     0.9431549
H           2.2870814     1.4029249     1.0183351
C           4.3665827     1.8884562     1.2900746
H           4.1608624     2.9032707     1.6196433
O           2.6024958    -2.4227336     0.6806733
C          -2.3265042    -3.0403860     0.0193721
H          -3.2559845    -3.5945691     0.1139810
C          -1.4163439    -2.9956343     1.0792946
H          -1.6365766    -3.5143581     2.0085639
C          -0.2253038    -2.2868268     0.9682749
H           0.4682457    -2.2672379     1.7986601
C           0.0886400    -1.6066267    -0.2219942
C          -0.8285042    -1.6500855    -1.2818189
H          -0.6222867    -1.1377020    -2.2139601
C          -2.0243475    -2.3616510    -1.1574984
H          -2.7173255    -2.3802819    -1.9945699
29
048_C14H13NO_0-5-12-10 (-135,) energy =    -671.2978925
N           1.2581431    -0.8306968    -0.2238177
C           1.3350571     0.1996226    -1.2628482
H           0.4238863     0.8051182    -1.2519709
H           1.4485911    -0.2429659    -2.2610834
H           2.1915632     0.8444319    -1.0847055
C           2.3970966    -1.2469666     0.4684054
C           5.7280150     1.4094372     1.0892883
H           6.5794828     2.0603323     1.2686747
C           5.9257658     0.1145061     0.6035646
H           6.9319039    -0.2444504     0.4046995
C           4.8349937    -0.7251175     0.3853779
H           4.9794444    -1.7443154     0.0403583
C           3.5325022    -0.2675510     0.6221089
C           3.3395379     1.0307180     1.1148610
H           2.3331559     1.3822277     1.3272916
C           4.4340538     1.8623747     1.3536490
H           4.2758871     2.8621277     1.7490530
O           2.4928757    -2.3550488     0.9795677
C          -2.3357241    -3.0873539    -0.0788097
H          -3.2626364    -3.6522138    -0.0358166
C          -1.5310481    -2.9589973     1.0565240
H          -1.8317839    -3.4225600     1.9923319
C          -0.3439022    -2.2352430     1.0120466
H           0.2691532    -2.1483947     1.8993346
C           0.0694271    -1.6260454    -0.1851077
C          -0.7409318    -1.7540623    -1.3217875
H          -0.4495817    -1.2986123    -2.2612337
C          -1.9334532    -2.4788720    -1.2647407
H          -2.5440076    -2.5647767    -2.1597412
29
048_C14H13NO_0-5-12-10 (-120,) energy =    -671.2971907
N           1.2356233    -0.8323666    -0.1448166
C           1.3404621     0.2013733    -1.1781267
H           0.3929274     0.7429653    -1.2474292
H           1.5710345    -0.2269412    -2.1623496
H           2.1306420     0.9034994    -0.9236468
C           2.3289883    -1.2029167     0.6334851
C           5.7563587     1.3854317     0.9688210
H           6.6313814     2.0213914     1.0719554
C           5.8742112     0.1209149     0.3875173
H           6.8411814    -0.2296686     0.0369492
C           4.7540001    -0.7003072     0.2637792
H           4.8454348    -1.6955806    -0.1612804
C           3.5013564    -0.2544525     0.7020176
C           3.3867892     1.0150232     1.2841773
H           2.4184017     1.3610669     1.6370370
C           4.5125440     1.8277651     1.4235273
H           4.4176257     2.8056838     1.8878783
O           2.3724634    -2.2522149     1.2619589
C          -2.3269937    -3.1393725    -0.1637506
H          -3.2460444    -3.7185949    -0.1663682
C          -1.6326870    -2.9194758     1.0285871
H          -2.0121406    -3.3257270     1.9623862
C          -0.4561982    -2.1760149     1.0425705
H           0.0733429    -2.0166066     1.9724312
C           0.0541568    -1.6411704    -0.1513715
C          -0.6440449    -1.8621745    -1.3463208
H          -0.2687138    -1.4659191    -2.2833926
C          -1.8264780    -2.6046449    -1.3485246
H          -2.3510172    -2.7644229    -2.2868501
29
048_C14H13NO_0-5-12-10 (-105,) energy =    -671.2963842
N           1.2281101    -0.8405390    -0.0949414
C           1.3664012     0.1769238    -1.1410306
H           0.4006352     0.6651553    -1.2962049
H           1.6982179    -0.2537453    -2.0947680
H           2.0944123     0.9258100    -0.8365318
C           2.2704070    -1.1396677     0.7731516
C           5.7737325     1.3706140     0.8885421
H           6.6666131     1.9879306     0.9370029
C           5.8018010     0.1505548     0.2099711
H           6.7169673    -0.1850729    -0.2704097
C           4.6578770    -0.6458675     0.1514387
H           4.6848297    -1.6040508    -0.3601785
C           3.4725637    -0.2221701     0.7637779
C           3.4483166     1.0014102     1.4452579
H           2.5326172     1.3307319     1.9300502
C           4.5963000     1.7923591     1.5092346
H           4.5707537     2.7369061     2.0460612
O           2.2564159    -2.1002625     1.5309994
C          -2.3135044    -3.1746406    -0.2273102
H          -3.2267244    -3.7619706    -0.2627862
C          -1.7030596    -2.8897451     0.9961903
H          -2.1427134    -3.2529113     1.9213144
C          -0.5338952    -2.1353804     1.0536093
H          -0.0685624    -1.9256818     2.0069144
C           0.0512934    -1.6556200    -0.1289009
C          -0.5626259    -1.9424141    -1.3562861
H          -0.1242752    -1.5896642    -2.2836621
C          -1.7372496    -2.6947049    -1.4016679
H          -2.1958986    -2.9063139    -2.3639429
29
048_C14H13NO_0-5-12-10 (-90,) energy =    -671.2962163
N           1.0076371    -0.7094461     0.2435781
C           0.8044523     0.6975864     0.6028789
H           0.6772471     1.3406552    -0.2775273
H           1.6606141     1.0616730     1.1683657
H          -0.0895798     0.7785000     1.2263402
C           2.2800236    -1.2350091     0.0704460
C           5.7574753     1.2068848     0.8012743
H           6.6515086     1.7987107     0.9776811
C           5.1378055     1.2293179    -0.4495765
H           5.5504617     1.8357323    -1.2514190
C           3.9892144     0.4701652    -0.6769052
H           3.5136190     0.4819181    -1.6542442
C           3.4512607    -0.3175737     0.3478279
C           4.0836220    -0.3488044     1.5970161
H           3.6816116    -0.9753923     2.3888856
C           5.2286451     0.4158406     1.8232041
H           5.7115669     0.3877861     2.7963333
O           2.4912752    -2.3873709    -0.2823527
C          -2.5060577    -2.9361122    -0.5950051
H          -3.4114683    -3.4998565    -0.8015377
C          -2.4277589    -1.5830524    -0.9202937
H          -3.2716331    -1.0811769    -1.3862338
C          -1.2637306    -0.8602554    -0.6574217
H          -1.2173575     0.1886532    -0.9308852
C          -0.1590798    -1.4829784    -0.0583792
C          -0.2411343    -2.8446042     0.2730027
H           0.6051010    -3.3385291     0.7292731
C          -1.4065740    -3.5576843     0.0003080
H          -1.4538583    -4.6110231     0.2636086
29
048_C14H13NO_0-5-12-10 (-75,) energy =    -671.2969018
N           0.9944456    -0.7224507     0.2777352
C           0.7878728     0.6981091     0.5794146
H           0.7281490     1.3187766    -0.3236304
H           1.6089062     1.0679136     1.1921755
H          -0.1446428     0.8065578     1.1390317
C           2.2666959    -1.2744976     0.2338768
C           5.7653780     1.1861507     0.7559748
H           6.6672705     1.7795354     0.8793766
C           5.0071391     1.2995888    -0.4106557
H           5.3208456     1.9755402    -1.2016338
C           3.8454413     0.5424512    -0.5668274
H           3.2590701     0.6300265    -1.4780943
C           3.4365311    -0.3392282     0.4416848
C           4.2160681    -0.4702942     1.5978035
H           3.9203658    -1.1812573     2.3641539
C           5.3668964     0.3006996     1.7599152
H           5.9592331     0.2013022     2.6655336
O           2.4797808    -2.4660667     0.0510426
C          -2.5101059    -2.9355180    -0.6356650
H          -3.4137634    -3.4936868    -0.8639544
C          -2.3840799    -1.6044835    -1.0305578
H          -3.1881926    -1.1148322    -1.5734886
C          -1.2222807    -0.8896646    -0.7395651
H          -1.1366555     0.1408585    -1.0683861
C          -0.1673713    -1.4969371    -0.0419354
C          -0.2975669    -2.8357912     0.3595046
H           0.5101224    -3.3176036     0.8912626
C          -1.4607894    -3.5415978     0.0572978
H          -1.5458724    -4.5772312     0.3756820
29
048_C14H13NO_0-5-12-10 (-60,) energy =    -671.2977862
N           0.9796875    -0.7094817     0.2960587
C           0.7487470     0.7148896     0.5634242
H           0.7159389     1.3214206    -0.3501529
H           1.5410297     1.1041686     1.2017910
H          -0.2061827     0.8222412     1.0845679
C           2.2457129    -1.2741657     0.3735301
C           5.7766949     1.1696342     0.7076204
H           6.6872448     1.7577181     0.7844230
C           4.8955198     1.3812102    -0.3540966
H           5.1225845     2.1261645    -1.1119972
C           3.7215840     0.6328473    -0.4481484
H           3.0419459     0.7962390    -1.2803437
C           3.4243220    -0.3410850     0.5143122
C           4.3304238    -0.5719462     1.5578462
H           4.1195712    -1.3583700     2.2762670
C           5.4910829     0.1922708     1.6642347
H           6.1797775     0.0165869     2.4861972
O           2.4458294    -2.4824145     0.3347649
C          -2.4941175    -2.9434024    -0.6832579
H          -3.3903896    -3.5049677    -0.9315768
C          -2.3211970    -1.6441167    -1.1590406
H          -3.0805107    -1.1837591    -1.7856709
C          -1.1685923    -0.9260053    -0.8423768
H          -1.0432002     0.0783604    -1.2340954
C          -0.1706799    -1.4964959    -0.0377545
C          -0.3486033    -2.8019856     0.4455168
H           0.4158300    -3.2542633     1.0602545
C          -1.5019999    -3.5128706     0.1162754
H          -1.6248048    -4.5229124     0.4982774
29
048_C14H13NO_0-5-12-10 (-45,) energy =    -671.2979741
N           0.9723471    -0.6821167     0.2948619
C           0.7043091     0.7372226     0.5595347
H           0.6359444     1.3373896    -0.3558616
H           1.4944393     1.1544357     1.1826466
H          -0.2451605     0.8201435     1.0961127
C           2.2254389    -1.2533014     0.4806190
C           5.8011457     1.1434685     0.6711918
H           6.7207853     1.7206071     0.7173016
C           4.8252496     1.4570949    -0.2761310
H           4.9874998     2.2710093    -0.9776315
C           3.6394541     0.7235342    -0.3286763
H           2.8925731     0.9641781    -1.0793889
C           3.4249661    -0.3417999     0.5566663
C           4.4241080    -0.6695409     1.4840560
H           4.2691529    -1.5211410     2.1387932
C           5.5975789     0.0779714     1.5517962
H           6.3588586    -0.1766667     2.2841531
O           2.3980901    -2.4652534     0.5551296
C          -2.4717936    -2.9508010    -0.7086152
H          -3.3608559    -3.5196631    -0.9662318
C          -2.2460281    -1.6984268    -1.2794969
H          -2.9560632    -1.2831689    -1.9898183
C          -1.1020942    -0.9723113    -0.9508579
H          -0.9307952    -0.0062630    -1.4154974
C          -0.1676602    -1.4864272    -0.0396029
C          -0.3990791    -2.7429510     0.5394737
H           0.3174117    -3.1513558     1.2371639
C          -1.5427171    -3.4642231     0.1972040
H          -1.7079952    -4.4369946     0.6528440
29
048_C14H13NO_0-5-12-10 (-30,) energy =    -671.2970448
N           0.9639152    -0.6166076     0.2492856
C           0.6239669     0.7598774     0.6320149
H           0.4233600     1.3981106    -0.2371810
H           1.4366344     1.2024560     1.2070569
H          -0.2745881     0.7437386     1.2577255
C           2.2043584    -1.1993298     0.4805528
C           5.8214914     1.1421840     0.6507153
H           6.7482783     1.7078475     0.6971130
C           4.7595161     1.6023385    -0.1290590
H           4.8603688     2.5206458    -0.7012849
C           3.5651177     0.8827312    -0.1817761
H           2.7584059     1.2378268    -0.8147060
C           3.4254939    -0.3158937     0.5326790
C           4.5073846    -0.7811228     1.2950173
H           4.4001559    -1.7242327     1.8204601
C           5.6927935    -0.0536864     1.3618368
H           6.5196132    -0.4217914     1.9631962
O           2.3426823    -2.4152566     0.5696107
C          -2.4246527    -2.9457619    -0.7779214
H          -3.3015378    -3.5299732    -1.0432824
C          -2.0738022    -1.8245291    -1.5306372
H          -2.6730229    -1.5309976    -2.3883955
C          -0.9433134    -1.0807860    -1.1920830
H          -0.6589692    -0.2187947    -1.7891338
C          -0.1595660    -1.4468963    -0.0917251
C          -0.5142463    -2.5684404     0.6674644
H           0.0983675    -2.8589448     1.5109042
C          -1.6397511    -3.3138886     0.3164991
H          -1.9051871    -4.1866732     0.9071119
29
048_C14H13NO_0-5-12-10 (-15,) energy =    -671.2949003
N           0.9601559    -0.5846968     0.2493924
C           0.5651167     0.7651927     0.6757394
H           0.3366942     1.4173916    -0.1763509
H           1.3566424     1.2241311     1.2677358
H          -0.3324619     0.6952664     1.3000568
C           2.1921540    -1.1612063     0.5477689
C           5.8538340     1.1251599     0.6136829
H           6.7897422     1.6768501     0.6427775
C           4.7318012     1.6817077    -0.0011679
H           4.7932401     2.6637167    -0.4624596
C           3.5261291     0.9796084    -0.0322840
H           2.6799792     1.4146083    -0.5516961
C           3.4319133    -0.2995537     0.5366351
C           4.5708726    -0.8528957     1.1429524
H           4.4905561    -1.8466785     1.5697615
C           5.7704920    -0.1479962     1.1828499
H           6.6419596    -0.5914029     1.6569072
O           2.3082910    -2.3729865     0.7016366
C          -2.3740462    -2.9914300    -0.7691231
H          -3.2381196    -3.5946131    -1.0343018
C          -1.9379309    -1.9781967    -1.6235288
H          -2.4576145    -1.7886254    -2.5589035
C          -0.8233659    -1.2102242    -1.2838206
H          -0.4675501    -0.4308663    -1.9521450
C          -0.1449408    -1.4457669    -0.0840978
C          -0.5842769    -2.4583231     0.7759693
H          -0.0481568    -2.6475075     1.6978804
C          -1.6923711    -3.2298132     0.4263200
H          -2.0248448    -4.0205132     1.0935893
29
048_C14H13NO_0-5-12-10 (0,) energy =    -671.2918761
N           1.0642643    -0.4053432    -0.1684641
C           0.6503423     1.0005384    -0.1165790
H           1.5280365     1.6425352    -0.1475438
H           0.0837559     1.2098871     0.7975462
H           0.0259641     1.2577721    -0.9823208
C           2.3448361    -0.6906037    -0.7025755
C           5.9077988     0.9855147     1.0631988
H           6.8201260     1.3983482     1.4853819
C           4.6739819     1.2685982     1.6514211
H           4.6228786     1.8959504     2.5371278
C           3.5005645     0.7439303     1.1103558
H           2.5589591     0.9359604     1.6119375
C           3.5467839    -0.0862992    -0.0210626
C           4.7937783    -0.3583940    -0.6071196
H           4.8175927    -0.9907778    -1.4877440
C           5.9645978     0.1648596    -0.0657825
H           6.9217010    -0.0631592    -0.5268777
O           2.5009701    -1.5196381    -1.5866590
C          -2.0122261    -3.3331281    -0.2125075
H          -2.7971309    -4.0838733    -0.2023840
C          -0.6676967    -3.7086820    -0.1323464
H          -0.3993431    -4.7591169    -0.0558088
C           0.3429012    -2.7552945    -0.1428721
H           1.3760302    -3.0729003    -0.0828099
C           0.0332015    -1.3852322    -0.2456921
C          -1.3178549    -1.0126535    -0.3197310
H          -1.6048266     0.0292368    -0.3896668
C          -2.3256153    -1.9809040    -0.3023390
H          -3.3628596    -1.6614834    -0.3617221
29
048_C14H13NO_0-5-12-10 (15,) energy =    -671.2951984
N           1.0951112    -0.4672573    -0.1419449
C           0.7209401     0.9494506    -0.0911121
H           1.6159140     1.5652522    -0.0439128
H           0.0979882     1.1534058     0.7862739
H           0.1650072     1.2432600    -0.9911358
C           2.3782889    -0.8086500    -0.6196860
C           5.8981307     1.0662359     1.0169084
H           6.7999426     1.5245973     1.4139693
C           4.6903010     1.1870087     1.7066709
H           4.6510124     1.7301632     2.6469668
C           3.5300664     0.6055152     1.1959920
H           2.6064350     0.6730266     1.7613311
C           3.5682784    -0.1191852    -0.0053165
C           4.7890917    -0.2411414    -0.6861877
H           4.8077983    -0.8103630    -1.6094128
C           5.9451159     0.3472156    -0.1800487
H           6.8835630     0.2452305    -0.7181491
O           2.5520247    -1.7209390    -1.4152475
C          -2.0731574    -3.2947393    -0.2324733
H          -2.8825628    -4.0191286    -0.2353956
C          -0.7522173    -3.7060333    -0.0298090
H          -0.5275668    -4.7572977     0.1301208
C           0.2890027    -2.7859057    -0.0222726
H           1.3040990    -3.1277799     0.1341454
C           0.0342331    -1.4171155    -0.2299915
C          -1.2929994    -1.0079893    -0.4269726
H          -1.5357707     0.0359066    -0.5833050
C          -2.3327360    -1.9419302    -0.4268258
H          -3.3512888    -1.5961283    -0.5828132
29
048_C14H13NO_0-5-12-10 (30,) energy =    -671.2972940
N           1.1215320    -0.5236157    -0.1260716
C           0.7778624     0.8995964    -0.0596410
H           1.6799694     1.4925691     0.0664943
H           0.1028480     1.0895674     0.7810827
H           0.2876386     1.2323303    -0.9838287
C           2.4110753    -0.9119997    -0.5233444
C           5.8913526     1.1468924     0.9602892
H           6.7854476     1.6451358     1.3254421
C           4.7342253     1.1249858     1.7413614
H           4.7284457     1.5955780     2.7207808
C           3.5831559     0.4937583     1.2699218
H           2.6945526     0.4575276     1.8931388
C           3.5835968    -0.1366002     0.0166568
C           4.7566871    -0.1285049    -0.7511788
H           4.7538984    -0.6426428    -1.7067205
C           5.9001368     0.5172141    -0.2869592
H           6.8009065     0.5246990    -0.8945781
O           2.6129082    -1.9020917    -1.2137909
C          -2.1210202    -3.2634591    -0.2681635
H          -2.9511733    -3.9638153    -0.2858063
C          -0.8305034    -3.7000417     0.0452446
H          -0.6508200    -4.7464655     0.2773172
C           0.2373671    -2.8104694     0.0724700
H           1.2292281    -3.1697405     0.3139007
C           0.0385134    -1.4499005    -0.2252360
C          -1.2582912    -1.0146239    -0.5344699
H          -1.4541503     0.0252249    -0.7666592
C          -2.3249072    -1.9170174    -0.5541534
H          -3.3194604    -1.5529068    -0.7982166
29
048_C14H13NO_0-5-12-10 (45,) energy =    -671.2979915
N           1.1373746    -0.5770573    -0.0909359
C           0.8182379     0.8508515    -0.0118478
H           1.7153936     1.4199061     0.2168809
H           0.0745935     1.0247205     0.7718869
H           0.4174005     1.2246874    -0.9630412
C           2.4321300    -1.0060899    -0.3996095
C           5.8912438     1.2143984     0.8787503
H           6.7825780     1.7478899     1.1977792
C           4.8147612     1.0660313     1.7553874
H           4.8697400     1.4726901     2.7615943
C           3.6660986     0.3896945     1.3437762
H           2.8347544     0.2640665     2.0322715
C           3.5896934    -0.1550248     0.0538386
C           4.6867341    -0.0296020    -0.8086677
H           4.6357732    -0.4904101    -1.7901309
C           5.8248113     0.6650977    -0.4042278
H           6.6647898     0.7692979    -1.0856142
O           2.6575814    -2.0635478    -0.9734739
C          -2.1634287    -3.2376088    -0.3357707
H          -3.0104732    -3.9161651    -0.3818835
C          -0.9177772    -3.6879925     0.1102137
H          -0.7909390    -4.7226472     0.4176092
C           0.1716478    -2.8259235     0.1753520
H           1.1294971    -3.1928991     0.5198523
C           0.0375123    -1.4824982    -0.2166242
C          -1.2140177    -1.0327811    -0.6604675
H          -1.3532574    -0.0040372    -0.9714711
C          -2.3027086    -1.9061680    -0.7173778
H          -3.2620881    -1.5332427    -1.0662751
29
048_C14H13NO_0-5-12-10 (60,) energy =    -671.2975703
N           1.1530087    -0.6114286    -0.0350453
C           0.8555161     0.8207164     0.0484357
H           1.7361084     1.3646919     0.3805481
H           0.0438457     0.9862547     0.7628785
H           0.5531629     1.2292576    -0.9246054
C           2.4517808    -1.0751038    -0.2357437
C           5.8925764     1.2980030     0.7974929
H           6.7817387     1.8665281     1.0562582
C           4.9216588     1.0382744     1.7664330
H           5.0572564     1.3944551     2.7841023
C           3.7761593     0.3146714     1.4326237
H           3.0230727     0.1091977     2.1893193
C           3.5960624    -0.1606216     0.1263089
C           4.5899685     0.0740484    -0.8320897
H           4.4690639    -0.3355675    -1.8304566
C           5.7237886     0.8147974    -0.5023539
H           6.4823608     1.0047766    -1.2568366
O           2.6981622    -2.1913132    -0.6730788
C          -2.1903340    -3.1992313    -0.4188687
H          -3.0502083    -3.8576403    -0.5039225
C          -1.0048579    -3.6547319     0.1638148
H          -0.9385770    -4.6725172     0.5389995
C           0.1009636    -2.8181077     0.2801869
H           1.0132037    -3.1862433     0.7303851
C           0.0414140    -1.4982349    -0.1973721
C          -1.1494702    -1.0428502    -0.7798270
H          -1.2239849    -0.0306811    -1.1611311
C          -2.2549744    -1.8891611    -0.8868169
H          -3.1673148    -1.5142346    -1.3431222
29
048_C14H13NO_0-5-12-10 (75,) energy =    -671.2966866
N           1.1539515    -0.6821164     0.0000155
C           0.8851722     0.7571691     0.0637671
H           1.7374637     1.2751452     0.4977636
H           0.0065521     0.9331582     0.6903919
H           0.6973158     1.1842440    -0.9299447
C           2.4489520    -1.1794589    -0.0824807
C           5.8652474     1.3283431     0.6978283
H           6.7471559     1.9325918     0.8923431
C           5.0270589     0.9535371     1.7495183
H           5.2581140     1.2586710     2.7666180
C           3.8921923     0.1809100     1.4992603
H           3.2424453    -0.1123427     2.3202183
C           3.5876523    -0.2240623     0.1928901
C           4.4453545     0.1327620    -0.8544888
H           4.2312616    -0.2125017    -1.8620223
C           5.5718250     0.9160358    -0.6037724
H           6.2264671     1.1964644    -1.4245499
O           2.7016204    -2.3428180    -0.3656878
C          -2.2331745    -3.1897824    -0.5006321
H          -3.1059506    -3.8256777    -0.6192958
C          -1.1141098    -3.6471476     0.1991083
H          -1.1133411    -4.6438175     0.6323206
C           0.0083911    -2.8390515     0.3593122
H           0.8700040    -3.2073577     0.8993040
C           0.0297520    -1.5477417    -0.1916037
C          -1.0942424    -1.0900112    -0.8933239
H          -1.0989731    -0.0992998    -1.3346732
C          -2.2162080    -1.9066711    -1.0432632
H          -3.0761711    -1.5320570    -1.5921039
29
048_C14H13NO_0-5-12-10 (90,) energy =    -671.2961710
N           1.1704185    -0.7134602     0.0301052
C           0.9272857     0.7323005     0.0433668
H           1.7394263     1.2392682     0.5611236
H          -0.0077688     0.9313876     0.5733325
H           0.8525974     1.1511838    -0.9685155
C           2.4565359    -1.2332186     0.0718731
C           5.8389060     1.3820764     0.6295416
H           6.7091724     2.0176126     0.7687876
C           5.1496163     0.8852939     1.7375432
H           5.4839255     1.1302116     2.7421569
C           4.0330783     0.0672861     1.5599788
H           3.5031290    -0.3264846     2.4235228
C           3.5945106    -0.2555034     0.2695699
C           4.2939436     0.2364794    -0.8387324
H           3.9697965    -0.0287545    -1.8416067
C           5.4101061     1.0541061    -0.6580116
H           5.9473646     1.4313336    -1.5240539
O           2.7039103    -2.4262232    -0.0401889
C          -2.2418885    -3.1640415    -0.5683962
H          -3.1220053    -3.7838325    -0.7149081
C          -1.1883615    -3.6098668     0.2324298
H          -1.2465882    -4.5809163     0.7169344
C          -0.0562217    -2.8226066     0.4299505
H           0.7550067    -3.1813030     1.0479329
C           0.0394516    -1.5648126    -0.1859825
C          -1.0188494    -1.1188013    -0.9906352
H          -0.9615562    -0.1542730    -1.4839481
C          -2.1505396    -1.9134878    -1.1767470
H          -2.9587007    -1.5489977    -1.8053375
29
048_C14H13NO_0-5-12-10 (105,) energy =    -671.2965727
N           1.1791469    -0.7201769     0.0518660
C           0.9488207     0.7278929     0.0096553
H           1.7146591     1.2406848     0.5897068
H          -0.0280161     0.9416951     0.4506240
H           0.9673183     1.1286291    -1.0118759
C           2.4518406    -1.2470669     0.2188654
C           5.8253012     1.4147413     0.5674322
H           6.6908164     2.0656470     0.6563918
C           5.2828852     0.8111122     1.7039728
H           5.7256704     0.9905162     2.6800255
C           4.1766603    -0.0312836     1.5900854
H           3.7663085    -0.5174347     2.4709650
C           3.5954354    -0.2645259     0.3376765
C           4.1404034     0.3442980    -0.7993850
H           3.6993865     0.1585272    -1.7754935
C           5.2554106     1.1754761    -0.6844055
H           5.6786159     1.6359562    -1.5731368
O           2.6822217    -2.4474197     0.2846416
C          -2.2342956    -3.1481119    -0.6288872
H          -3.1150852    -3.7607512    -0.7995706
C          -1.2441395    -3.5662149     0.2620028
H          -1.3530100    -4.5081269     0.7931064
C          -0.1111490    -2.7880345     0.4922161
H           0.6513749    -3.1246652     1.1798623
C           0.0486730    -1.5677891    -0.1828963
C          -0.9463957    -1.1497510    -1.0789486
H          -0.8363230    -0.2151603    -1.6191690
C          -2.0790895    -1.9341971    -1.2964527
H          -2.8370487    -1.5920453    -1.9961405
29
048_C14H13NO_0-5-12-10 (120,) energy =    -671.2974525
N           1.1745426    -0.7037995     0.0642333
C           0.9348765     0.7412039    -0.0243708
H           1.6693157     1.2751107     0.5773528
H          -0.0624678     0.9547408     0.3685764
H           0.9931035     1.1207704    -1.0521517
C           2.4311060    -1.2198722     0.3500255
C           5.8539628     1.3920370     0.5265883
H           6.7326978     2.0294591     0.5749471
C           5.4303738     0.6956685     1.6609807
H           5.9788214     0.7900181     2.5943157
C           4.3099931    -0.1318371     1.5965849
H           3.9935291    -0.6991886     2.4669399
C           3.5882196    -0.2506692     0.4020827
C           4.0153661     0.4515018    -0.7321917
H           3.4695072     0.3517872    -1.6668985
C           5.1497639     1.2617368    -0.6718246
H           5.4827438     1.7911278    -1.5605339
O           2.6370300    -2.4074442     0.5689270
C          -2.2134979    -3.1528428    -0.6702014
H          -3.0879411    -3.7696902    -0.8576734
C          -1.2830535    -3.5223547     0.3023496
H          -1.4325883    -4.4302174     0.8807973
C          -0.1586423    -2.7380236     0.5554664
H           0.5580407    -3.0367369     1.3065347
C           0.0530469    -1.5616825    -0.1802826
C          -0.8824822    -1.1924901    -1.1585670
H          -0.7299691    -0.2923650    -1.7453157
C          -2.0071312    -1.9815777    -1.3979569
H          -2.7180203    -1.6777709    -2.1618191
29
048_C14H13NO_0-5-12-10 (135,) energy =    -671.2980165
N           1.1517903    -0.6727702     0.0656352
C           0.8755718     0.7648427    -0.0462196
H           1.5916748     1.3272988     0.5517433
H          -0.1298320     0.9581465     0.3376389
H           0.9278916     1.1318628    -1.0785267
C           2.3898332    -1.1596609     0.4656555
C           5.8888925     1.3526841     0.4886058
H           6.7899787     1.9600014     0.4994208
C           5.5581935     0.5705652     1.5981384
H           6.2015987     0.5669449     2.4737901
C           4.4099975    -0.2184936     1.5791873
H           4.1628682    -0.8573805     2.4213091
C           3.5613153    -0.2089019     0.4637844
C           3.9025248     0.5722217    -0.6485575
H           3.2715213     0.5607156    -1.5328227
C           5.0653461     1.3433859    -0.6383947
H           5.3286209     1.9341502    -1.5116559
O           2.5722226    -2.3238410     0.8040626
C          -2.1831630    -3.1818325    -0.7096139
H          -3.0440806    -3.8131944    -0.9109995
C          -1.3160542    -3.4835596     0.3413094
H          -1.5019216    -4.3524566     0.9671588
C          -0.2093156    -2.6798029     0.6132847
H           0.4590618    -2.9253792     1.4254435
C           0.0484244    -1.5540224    -0.1836355
C          -0.8239608    -1.2528038    -1.2405516
H          -0.6331106    -0.3919710    -1.8735617
C          -1.9316198    -2.0594123    -1.4981774
H          -2.5930398    -1.8092150    -2.3234567
29
048_C14H13NO_0-5-12-10 (150,) energy =    -671.2975910
N           1.1395965    -0.6138703     0.0652882
C           0.8049345     0.8138154    -0.0103795
H           1.5323238     1.3979524     0.5523645
H          -0.1837796     0.9682174     0.4325020
H           0.7816122     1.1907111    -1.0401220
C           2.3541735    -1.0844958     0.5492986
C           5.9495471     1.2898968     0.4709160
H           6.8765522     1.8568034     0.4533053
C           5.6980003     0.3879026     1.5081343
H           6.4305640     0.2485332     2.2984785
C           4.5153638    -0.3469478     1.5225764
H           4.3230275    -1.0777211     2.3012543
C           3.5488946    -0.1637432     0.5225283
C           3.8190235     0.7273562    -0.5260077
H           3.1113257     0.8396695    -1.3413293
C           5.0135715     1.4481908    -0.5519135
H           5.2150734     2.1273370    -1.3759419
O           2.5006605    -2.2362365     0.9452374
C          -2.1345080    -3.1868155    -0.7400994
H          -2.9806515    -3.8347587    -0.9515553
C          -1.3894906    -3.3597132     0.4274182
H          -1.6561755    -4.1431649     1.1318475
C          -0.3035019    -2.5318413     0.7118451
H           0.2740196    -2.6741872     1.6145512
C           0.0551432    -1.5201149    -0.1891142
C          -0.6916662    -1.3492468    -1.3626206
H          -0.4119440    -0.5756352    -2.0716687
C          -1.7819598    -2.1751811    -1.6337226
H          -2.3487892    -2.0303591    -2.5495898
29
048_C14H13NO_0-5-12-10 (165,) energy =    -671.2958747
N           1.1287693    -0.5578867     0.0563934
C           0.7057708     0.8487693     0.0767711
H           1.4436943     1.4574868     0.5984935
H          -0.2473059     0.9299642     0.6111274
H           0.5658554     1.2533209    -0.9330482
C           2.3216458    -1.0077090     0.6128636
C           5.9839213     1.2598997     0.3992196
H           6.9277463     1.7957972     0.3434546
C           5.8111224     0.2363922     1.3346036
H           6.6227914    -0.0313242     2.0056384
C           4.6046325    -0.4548490     1.3976288
H           4.4651615    -1.2735596     2.0953584
C           3.5353846    -0.1114352     0.5556052
C           3.7324300     0.8918270    -0.4055777
H           2.9546760     1.1223413    -1.1253862
C           4.9465678     1.5759005    -0.4785765
H           5.0843662     2.3472046    -1.2315749
O           2.4400480    -2.1484814     1.0479525
C          -2.0654280    -3.2186906    -0.7620271
H          -2.8925414    -3.8890493    -0.9792984
C          -1.4784314    -3.2157387     0.5049418
H          -1.8483835    -3.8848345     1.2772534
C          -0.4185374    -2.3563877     0.7944301
H           0.0431711    -2.3594669     1.7736190
C           0.0698571    -1.4982664    -0.1976261
C          -0.5142937    -1.5048984    -1.4688246
H          -0.1221337    -0.8471361    -2.2396482
C          -1.5814479    -2.3588518    -1.7486602
H          -2.0263270    -2.3568981    -2.7401378
29
048_C14H13NO_0-5-12-10 (180,) energy =    -671.2931076
N           1.2960273    -0.7891119    -0.4900476
C           1.2674824     0.2011561    -1.5705452
H           0.5006989     0.9614390    -1.3855263
H           1.0597795    -0.2777069    -2.5363268
H           2.2388229     0.6845516    -1.6501448
C           2.5540719    -1.2801927    -0.0782994
C           5.5656188     1.3866765     1.4747301
H           6.3282840     2.0320198     1.9023883
C           5.8186232     0.0250999     1.2922750
H           6.7765311    -0.3958197     1.5852831
C           4.8376290    -0.8004196     0.7503022
H           5.0097275    -1.8636259     0.6229979
C           3.5985990    -0.2769128     0.3471375
C           3.3373150     1.0830520     0.5829672
H           2.3569506     1.4974537     0.3766291
C           4.3185815     1.9097491     1.1294474
H           4.1005151     2.9601768     1.3019387
O           2.7601656    -2.4745100     0.0808941
C          -2.2617347    -3.0015286     0.2065755
H          -3.1773610    -3.5534502     0.3985202
C          -1.1735914    -3.1042058     1.0784818
H          -1.2394796    -3.7373860     1.9593890
C           0.0014152    -2.4010764     0.8419639
H           0.8308341    -2.5007666     1.5299631
C           0.1236671    -1.5745574    -0.2915403
C          -0.9732557    -1.4693748    -1.1605312
H          -0.9281889    -0.8387339    -2.0398185
C          -2.1513263    -2.1777500    -0.9089121
H          -2.9837807    -2.0769737    -1.6004658
