29
048_C14H13NO_24-0-5-12 (-165,) energy =    -671.2979908
N           1.0678354    -0.6240268    -0.0771915
C           0.7382351     0.7993793     0.0308020
H           1.6357794     1.3725971     0.2476038
H           0.0108540     0.9556258     0.8334040
H           0.3132666     1.1836387    -0.9055791
C           2.3626294    -1.0373750    -0.4053766
C           5.8176649     1.1887006     0.8741721
H           6.7084657     1.7232296     1.1929825
C           4.7534441     1.0125917     1.7605430
H           4.8177924     1.3988000     2.7742154
C           3.6055306     0.3347138     1.3491792
H           2.7833364     0.1879746     2.0444869
C           3.5176830    -0.1833552     0.0491024
C           4.6028994    -0.0306624    -0.8239419
H           4.5438903    -0.4714170    -1.8141508
C           5.7398077     0.6656630    -0.4191321
H           6.5703264     0.7913891    -1.1084260
O           2.5909745    -2.0843238    -0.9970178
C          -2.2123781    -3.3117083    -0.3008388
H          -3.0540060    -3.9973102    -0.3415857
C          -0.9551460    -3.7565579     0.1172732
H          -0.8137098    -4.7940781     0.4081996
C           0.1275191    -2.8854803     0.1753640
H           1.0945136    -3.2483953     0.4979063
C          -0.0254575    -1.5381519    -0.1957776
C          -1.2885665    -1.0940646    -0.6116721
H          -1.4423742    -0.0624394    -0.9058164
C          -2.3702118    -1.9765380    -0.6616700
H          -3.3388544    -1.6077664    -0.9887046
29
048_C14H13NO_24-0-5-12 (-150,) energy =    -671.2970142
N           1.0616687    -0.5710060    -0.3396860
C           0.7305320     0.8511784    -0.2509307
H           1.6466680     1.4367664    -0.2172733
H           0.1382227     1.0613209     0.6465168
H           0.1583928     1.1734393    -1.1301829
C           2.3684825    -0.9676926    -0.6543213
C           5.7527155     1.0577362     1.0657441
H           6.6248634     1.5405033     1.4984922
C           4.5770935     0.9410912     1.8096991
H           4.5350928     1.3223350     2.8263694
C           3.4542195     0.3292381     1.2520180
H           2.5444361     0.2274308     1.8368934
C           3.5031148    -0.1826868    -0.0523985
C           4.6956107    -0.0859393    -0.7828782
H           4.7336528    -0.5179428    -1.7778785
C           5.8095892     0.5431947    -0.2324443
H           6.7257220     0.6249727    -0.8109280
O           2.6119698    -1.9664878    -1.3179732
C          -2.1595294    -3.3240677    -0.0582111
H          -2.9848179    -4.0246660     0.0305749
C          -0.8391135    -3.7602005     0.0809193
H          -0.6301281    -4.8075661     0.2825097
C           0.2259935    -2.8733593    -0.0317707
H           1.2389646    -3.2388886     0.0669959
C          -0.0088208    -1.5099437    -0.2923356
C          -1.3369499    -1.0755898    -0.4310319
H          -1.5608535    -0.0355239    -0.6348619
C          -2.3973138    -1.9768624    -0.3135316
H          -3.4146064    -1.6111658    -0.4263994
29
048_C14H13NO_24-0-5-12 (-135,) energy =    -671.2945005
N           1.0602770    -0.5379316    -0.6088996
C           0.7435023     0.8870839    -0.5373054
H           1.6534534     1.4649409    -0.6915740
H           0.3067964     1.1667444     0.4293834
H           0.0344380     1.1556275    -1.3297304
C           2.3893583    -0.9283635    -0.8520908
C           5.6281430     0.9714281     1.2445648
H           6.4620116     1.4230830     1.7752760
C           4.3726370     0.8975612     1.8507373
H           4.2293740     1.2807078     2.8573770
C           3.2990175     0.3263197     1.1675446
H           2.3273770     0.2563388     1.6473118
C           3.4777025    -0.1891058    -0.1239698
C           4.7475229    -0.1325863    -0.7164841
H           4.8806171    -0.5631523    -1.7038819
C           5.8137646     0.4555037    -0.0412279
H           6.7916636     0.5054928    -0.5121710
O           2.6711057    -1.8977626    -1.5421313
C          -2.0736896    -3.2895674     0.1992216
H          -2.8758857    -3.9876606     0.4201344
C          -0.7656179    -3.7430650     0.0127392
H          -0.5419687    -4.8041130     0.0881349
C           0.2707228    -2.8618138    -0.2777979
H           1.2678082    -3.2448208    -0.4431265
C           0.0202840    -1.4789075    -0.3804699
C          -1.2995342    -1.0273568    -0.1994735
H          -1.5410890     0.0253419    -0.2776989
C          -2.3285488    -1.9259282     0.0880752
H          -3.3369856    -1.5435143     0.2236234
29
048_C14H13NO_24-0-5-12 (-120,) energy =    -671.2908272
N           1.0498451    -0.5210812    -0.8613388
C           0.7438679     0.9065662    -0.7976873
H           1.6236912     1.4727424    -1.1043153
H           0.4465939     1.2421889     0.2045299
H          -0.0685494     1.1385604    -1.4959318
C           2.4011545    -0.9019293    -1.0343275
C           5.4631471     0.8618087     1.4109500
H           6.2505461     1.2816990     2.0311727
C           4.1577295     0.7832081     1.8996538
H           3.9291041     1.1303601     2.9035141
C           3.1432992     0.2544330     1.1015836
H           2.1325341     0.1785285     1.4901788
C           3.4331752    -0.2159281    -0.1868190
C           4.7516348    -0.1545794    -0.6622337
H           4.9674277    -0.5476686    -1.6507048
C           5.7589508     0.3922484     0.1277141
H           6.7757588     0.4468081    -0.2512950
O           2.7222828    -1.8300651    -1.7596726
C          -1.9358789    -3.2564050     0.4185886
H          -2.6990733    -3.9520794     0.7549532
C          -0.6940684    -3.7191789    -0.0234826
H          -0.4842561    -4.7856997    -0.0365373
C           0.2886831    -2.8398568    -0.4665741
H           1.2296006    -3.2251999    -0.8352316
C           0.0549650    -1.4500110    -0.4599073
C          -1.2015678    -0.9880203    -0.0270599
H          -1.4319655     0.0701106    -0.0193516
C          -2.1787906    -1.8859159     0.4067056
H          -3.1383842    -1.4966565     0.7374379
29
048_C14H13NO_24-0-5-12 (-105,) energy =    -671.2868047
N           1.0284493    -0.4714452    -1.0667489
C           0.7228926     0.9555353    -1.0074621
H           1.5667213     1.5153440    -1.4149041
H           0.5228956     1.3241470     0.0084324
H          -0.1530840     1.1676388    -1.6309724
C           2.4022184    -0.8300939    -1.2252938
C           5.3230256     0.6718849     1.5403209
H           6.0733680     1.0306067     2.2398352
C           3.9833912     0.6057170     1.9278919
H           3.6908189     0.9016350     2.9314769
C           3.0169558     0.1560541     1.0284429
H           1.9791647     0.0868867     1.3381733
C           3.3899618    -0.2477747    -0.2615641
C           4.7415008    -0.1979227    -0.6371610
H           5.0181613    -0.5351214    -1.6310485
C           5.7012171     0.2694424     0.2555977
H           6.7444598     0.3153808    -0.0443782
O           2.7475079    -1.6546091    -2.0520279
C          -1.7325134    -3.2196966     0.6126538
H          -2.4385322    -3.9220738     1.0458289
C          -0.5296171    -3.6674459     0.0597174
H          -0.2940988    -4.7286833     0.0566250
C           0.3782521    -2.7785622    -0.5058213
H           1.2889323    -3.1525443    -0.9568316
C           0.1082984    -1.3949982    -0.5167761
C          -1.1086435    -0.9480682     0.0298328
H          -1.3633371     0.1049102     0.0270730
C          -2.0122563    -1.8562423     0.5856306
H          -2.9440622    -1.4806126     1.0010125
29
048_C14H13NO_24-0-5-12 (-90,) energy =    -671.2899886
N           0.9605491     0.0502276    -0.8043701
C           0.2523479     0.7469754    -1.9023584
H           0.8280207     1.6286875    -2.1950353
H          -0.7227942     1.0698171    -1.5310467
H           0.1117891     0.1083421    -2.7825328
C           2.3155417    -0.2616937    -1.1664750
C           5.3087957     0.1875714     1.8739122
H           6.0779350     0.3058212     2.6327452
C           3.9855650     0.5273997     2.1632316
H           3.7241164     0.9123501     3.1451274
C           2.9970473     0.3799573     1.1911919
H           1.9699205     0.6552161     1.4016689
C           3.3284642    -0.1113592    -0.0799139
C           4.6608763    -0.4517238    -0.3635934
H           4.9002856    -0.8261288    -1.3535340
C           5.6456868    -0.3010782     0.6076139
H           6.6755092    -0.5637545     0.3814405
O           2.6409615    -0.4668913    -2.3249971
C          -1.3350219    -3.1802123     0.7276934
H          -1.9278660    -3.9983056     1.1270322
C          -0.2295813    -3.4417856    -0.0802226
H           0.0411995    -4.4668045    -0.3191991
C           0.5305783    -2.3931342    -0.6039483
H           1.3688498    -2.6054655    -1.2597915
C           0.2003552    -1.0659910    -0.3004539
C          -0.9066900    -0.8073240     0.5219387
H          -1.1499725     0.2218646     0.7715148
C          -1.6740533    -1.8561258     1.0216924
H          -2.5299810    -1.6403895     1.6557717
29
048_C14H13NO_24-0-5-12 (-75,) energy =    -671.2952781
N           0.9375150     0.1182284    -0.9310413
C           0.1711338     0.7254279    -2.0395116
H           0.6908050     1.6217500    -2.3837827
H          -0.8158556     1.0034720    -1.6642108
H           0.0560699     0.0405883    -2.8882669
C           2.3033462    -0.0909143    -1.2606584
C           5.1876374    -0.0307131     1.9221233
H           5.9315247    -0.0073356     2.7142391
C           3.8632516     0.3166631     2.1967395
H           3.5757318     0.6149700     3.2012631
C           2.9067593     0.2883542     1.1826946
H           1.8810183     0.5711114     1.3907638
C           3.2710283    -0.0872614    -0.1182124
C           4.6045263    -0.4307899    -0.3878716
H           4.8724079    -0.7074019    -1.4023968
C           5.5572227    -0.4033686     0.6265328
H           6.5878722    -0.6706424     0.4095076
O           2.6881843    -0.0874569    -2.4213710
C          -1.1548301    -3.1054246     0.8721713
H          -1.6963524    -3.9247849     1.3364080
C          -0.0466742    -3.3630209     0.0659055
H           0.2772390    -4.3859352    -0.1062313
C           0.6458756    -2.3133136    -0.5411452
H           1.4887141    -2.5221474    -1.1933985
C           0.2460390    -0.9886046    -0.3244114
C          -0.8636360    -0.7326613     0.4942295
H          -1.1631950     0.2961441     0.6742818
C          -1.5639176    -1.7850272     1.0791046
H          -2.4230139    -1.5729281     1.7100000
29
048_C14H13NO_24-0-5-12 (-60,) energy =    -671.2995424
N           0.9167178     0.1466639    -1.0391444
C           0.1177213     0.6950710    -2.1504325
H           0.5815288     1.6176238    -2.5023865
H          -0.8883492     0.9078842    -1.7838811
H           0.0541134    -0.0041824    -2.9933768
C           2.2942391     0.0735040    -1.3137731
C           5.0883410    -0.2037968     1.9422241
H           5.8109987    -0.2624439     2.7519417
C           3.7669911     0.1595501     2.2103291
H           3.4606475     0.3904549     3.2270134
C           2.8360908     0.2326326     1.1748063
H           1.8134622     0.5253173     1.3851044
C           3.2230996    -0.0526309    -0.1421624
C           4.5551300    -0.4043406    -0.4055219
H           4.8450926    -0.6004472    -1.4326869
C           5.4813720    -0.4847693     0.6309294
H           6.5101511    -0.7622296     0.4176725
O           2.7270320     0.2713979    -2.4425612
C          -1.0121828    -3.0410696     0.9882954
H          -1.5130800    -3.8533592     1.5073077
C           0.0981944    -3.2996423     0.1846597
H           0.4640705    -4.3163831     0.0699516
C           0.7380684    -2.2600874    -0.4923271
H           1.5864422    -2.4696267    -1.1371652
C           0.2838643    -0.9430359    -0.3495109
C          -0.8289584    -0.6855843     0.4635971
H          -1.1733961     0.3378879     0.5838872
C          -1.4763844    -1.7297678     1.1206178
H          -2.3379776    -1.5168270     1.7477233
29
048_C14H13NO_24-0-5-12 (-45,) energy =    -671.3020515
N           0.9097082     0.1284269    -1.1257051
C           0.1027147     0.6363948    -2.2462503
H           0.4996038     1.6006936    -2.5654709
H          -0.9295125     0.7533106    -1.9114850
H           0.1270286    -0.0469529    -3.1044818
C           2.2903065     0.2075720    -1.3192766
C           5.0240288    -0.3383977     1.9568862
H           5.7335893    -0.4621005     2.7708268
C           3.7042800     0.0272065     2.2294454
H           3.3862616     0.1966518     3.2546302
C           2.7892478     0.1803237     1.1883618
H           1.7676768     0.4713843     1.4066859
C           3.1908206    -0.0237117    -0.1391818
C           4.5232339    -0.3695728    -0.4065317
H           4.8290440    -0.4925348    -1.4404571
C           5.4322195    -0.5360584     0.6354037
H           6.4603364    -0.8125868     0.4176937
O           2.7528101     0.5759817    -2.3941096
C          -0.9103892    -2.9970215     1.0845728
H          -1.3846963    -3.7951637     1.6485444
C           0.2107704    -3.2626472     0.2977586
H           0.6113953    -4.2711572     0.2415871
C           0.8162123    -2.2421443    -0.4365146
H           1.6757059    -2.4564229    -1.0644101
C           0.3171666    -0.9353515    -0.3688203
C          -0.8077101    -0.6708768     0.4247162
H          -1.1894362     0.3446639     0.4843801
C          -1.4202456    -1.6976355     1.1408404
H          -2.2911900    -1.4792314     1.7529294
29
048_C14H13NO_24-0-5-12 (-30,) energy =    -671.3028632
N           0.8972104     0.0384424    -1.1957568
C           0.0952507     0.5195008    -2.3289513
H           0.4210493     1.5240426    -2.6005015
H          -0.9563674     0.5332206    -2.0379824
H           0.2154565    -0.1285073    -3.2064231
C           2.2622246     0.2772788    -1.2878044
C           4.9589031    -0.4761693     1.9798490
H           5.6598391    -0.6501357     2.7920346
C           3.6358316    -0.1309603     2.2617404
H           3.3061031    -0.0265786     3.2919291
C           2.7303721     0.0840525     1.2230212
H           1.7056433     0.3553654     1.4523991
C           3.1450504    -0.0343134    -0.1107567
C           4.4825237    -0.3536946    -0.3856777
H           4.8018849    -0.4034722    -1.4216073
C           5.3810712    -0.5870824     0.6526772
H           6.4123339    -0.8457093     0.4278326
O           2.7363752     0.7976384    -2.2943673
C          -0.8771535    -3.0070170     1.1536753
H          -1.3397572    -3.7865389     1.7523941
C           0.2577259    -3.2868456     0.3912731
H           0.6805913    -4.2877709     0.3894407
C           0.8481303    -2.2907686    -0.3869382
H           1.7206650    -2.5137257    -0.9931047
C           0.3204174    -0.9936394    -0.3881619
C          -0.8193621    -0.7151282     0.3785614
H          -1.2255711     0.2926473     0.3819704
C          -1.4163645    -1.7185738     1.1400847
H          -2.2985409    -1.4899516     1.7319785
29
048_C14H13NO_24-0-5-12 (-15,) energy =    -671.3023756
N           0.9332960    -0.0443770    -1.2980915
C           0.1446859     0.4520313    -2.4344166
H           0.2655032     1.5331459    -2.5318104
H          -0.9045726     0.2063485    -2.2680624
H           0.4803868    -0.0089043    -3.3705557
C           2.2630644     0.3397405    -1.2888510
C           4.9770383    -0.5488529     1.9328480
H           5.6837899    -0.7554451     2.7322660
C           3.6460732    -0.2551569     2.2345395
H           3.3156033    -0.2229233     3.2692604
C           2.7334094    -0.0002167     1.2109317
H           1.7023760     0.2285469     1.4581072
C           3.1485262    -0.0250814    -0.1278325
C           4.4943367    -0.2889962    -0.4206202
H           4.8154974    -0.2622937    -1.4568246
C           5.3995907    -0.5651978     0.6014981
H           6.4369058    -0.7819218     0.3607683
O           2.7184789     0.9893778    -2.2277742
C          -0.8710761    -2.9614086     1.1836040
H          -1.3404381    -3.7101880     1.8153828
C           0.2897265    -3.2698090     0.4722934
H           0.7256187    -4.2625640     0.5436730
C           0.8888466    -2.3144235    -0.3484645
H           1.7817032    -2.5579847    -0.9154276
C           0.3435739    -1.0280173    -0.4444801
C          -0.8223454    -0.7205763     0.2702686
H          -1.2433993     0.2785536     0.1994985
C          -1.4276425    -1.6851972     1.0750789
H          -2.3305048    -1.4346929     1.6254699
29
048_C14H13NO_24-0-5-12 (0,) energy =    -671.3013315
N           0.9521072    -0.0677001    -1.3510111
C           0.1285971     0.4870264    -2.4337740
H          -0.1719368     1.5206120    -2.2251986
H          -0.7594823    -0.1355342    -2.5503916
H           0.7068188     0.4893233    -3.3599551
C           2.2369031     0.4407626    -1.2587732
C           5.0192980    -0.5840357     1.8638743
H           5.7433918    -0.8222633     2.6385615
C           3.6921860    -0.3179558     2.2045510
H           3.3813765    -0.3387254     3.2456341
C           2.7570053    -0.0237258     1.2118769
H           1.7287771     0.1811950     1.4901980
C           3.1460718     0.0202988    -0.1340351
C           4.4889146    -0.2128098    -0.4646234
H           4.7926219    -0.1302623    -1.5032320
C           5.4157633    -0.5310949     0.5254492
H           6.4500976    -0.7252225     0.2545344
O           2.6519831     1.2154981    -2.1177966
C          -0.8985702    -2.8497209     1.2470052
H          -1.3800189    -3.5661907     1.9065744
C           0.2856678    -3.1863020     0.5879110
H           0.7271881    -4.1692127     0.7279151
C           0.9001261    -2.2738739    -0.2685381
H           1.8100148    -2.5395560    -0.7966797
C           0.3470968    -1.0001528    -0.4534527
C          -0.8439609    -0.6654385     0.2050232
H          -1.2764272     0.3206379     0.0608885
C          -1.4638043    -1.5890461     1.0472144
H          -2.3864435    -1.3178205     1.5532442
29
048_C14H13NO_24-0-5-12 (15,) energy =    -671.3023744
N           0.5433308     0.1946086     0.8102784
C          -0.6053743     0.8650413     1.4353226
H          -0.4900847     1.9492527     1.3695962
H          -0.6791351     0.5992541     2.4960620
H          -1.5156448     0.5541318     0.9218543
C           1.7849371     0.6095501     1.2601099
C           5.5069461    -0.7490661    -0.4231242
H           6.4620741    -1.0713196    -0.8294769
C           5.3705468    -0.5189427     0.9479269
H           6.2192852    -0.6587466     1.6120321
C           4.1486818    -0.0950936     1.4654835
H           4.0367141     0.1226487     2.5226694
C           3.0391105     0.0727557     0.6245567
C           3.1856288    -0.1500692    -0.7517278
H           2.3455535     0.0008229    -1.4210292
C           4.4157620    -0.5530002    -1.2714696
H           4.5208713    -0.7127289    -2.3412113
O           1.8616397     1.4273201     2.1746387
C          -0.2610258    -3.1645306    -1.6377194
H          -0.4752222    -4.0261153    -2.2637400
C           0.5154328    -3.3078855    -0.4865396
H           0.9042712    -4.2838385    -0.2090925
C           0.7830970    -2.2061133     0.3256430
H           1.3719414    -2.3193437     1.2302828
C           0.2957458    -0.9401752    -0.0229397
C          -0.4841303    -0.7985733    -1.1790417
H          -0.8589642     0.1839247    -1.4524036
C          -0.7641962    -1.9069817    -1.9775941
H          -1.3688934    -1.7843402    -2.8721056
29
048_C14H13NO_24-0-5-12 (30,) energy =    -671.3028626
N           0.5677063     0.2423329     0.7363224
C          -0.5884639     0.8871021     1.3736006
H          -0.3535959     1.9332298     1.5721432
H          -0.8386286     0.4051216     2.3272439
H          -1.4469070     0.8171451     0.7035482
C           1.8014811     0.5384726     1.3010102
C           5.5134711    -0.6854753    -0.5028267
H           6.4645480    -0.9754677    -0.9417468
C           5.3913166    -0.5500601     0.8822651
H           6.2484009    -0.7325884     1.5249100
C           4.1737301    -0.1685424     1.4409711
H           4.0710274    -0.0270261     2.5119481
C           3.0552891     0.0552601     0.6251913
C           3.1868959    -0.0738779    -0.7643114
H           2.3376678     0.1204012    -1.4103315
C           4.4119172    -0.4371063    -1.3236299
H           4.5054414    -0.5243310    -2.4027528
O           1.8734425     1.2417529     2.3054886
C          -0.2841303    -3.2233960    -1.5454095
H          -0.5109439    -4.1103337    -2.1302280
C           0.4618120    -3.3283305    -0.3706518
H           0.8146950    -4.2990266    -0.0331648
C           0.7459761    -2.1927836     0.3883744
H           1.3115512    -2.2778043     1.3110606
C           0.3061149    -0.9334343    -0.0377856
C          -0.4427802    -0.8308171    -1.2181026
H          -0.7794097     0.1469742    -1.5516106
C          -0.7397394    -1.9708716    -1.9633047
H          -1.3194579    -1.8782905    -2.8777457
29
048_C14H13NO_24-0-5-12 (45,) energy =    -671.3020515
N           0.6094264     0.3185649     0.6619249
C          -0.5453393     0.9874190     1.2815908
H          -0.2653567     2.0051958     1.5554963
H          -0.8761749     0.4655756     2.1884196
H          -1.3660773     1.0099403     0.5624852
C           1.8129813     0.4755251     1.3522862
C           5.5692410    -0.5434797    -0.4800043
H           6.5309337    -0.7838792    -0.9256965
C           5.4337013    -0.4946718     0.9096919
H           6.2894485    -0.6954779     1.5486463
C           4.2022975    -0.1789517     1.4785095
H           4.0851326    -0.1100471     2.5551598
C           3.0870308     0.0716201     0.6662056
C           3.2312884     0.0281869    -0.7275492
H           2.3823843     0.2433669    -1.3671419
C           4.4684033    -0.2740013    -1.2956659
H           4.5729337    -0.2960618    -2.3770642
O           1.8426874     1.0403801     2.4408479
C          -0.3412088    -3.2026505    -1.4976626
H          -0.5929221    -4.1020917    -2.0523824
C           0.3831858    -3.2898660    -0.3084237
H           0.6943175    -4.2593914     0.0709966
C           0.6990289    -2.1375551     0.4123828
H           1.2445099    -2.2106335     1.3483370
C           0.3124392    -0.8797704    -0.0670372
C          -0.4128825    -0.7949381    -1.2635784
H          -0.7050042     0.1815012    -1.6401830
C          -0.7424344    -1.9504943    -1.9695240
H          -1.3043814    -1.8710165    -2.8962340
29
048_C14H13NO_24-0-5-12 (60,) energy =    -671.2995424
N           0.6494906     0.3219947     0.5826944
C          -0.4929332     1.0293555     1.1898403
H          -0.1653512     2.0140921     1.5261117
H          -0.8996498     0.4864432     2.0520331
H          -1.2738587     1.1413603     0.4352284
C           1.8135747     0.3434371     1.3719232
C           5.6280987    -0.4061251    -0.4649298
H           6.6027787    -0.5814743    -0.9127866
C           5.4790039    -0.4416148     0.9240962
H           6.3369691    -0.6443038     1.5594382
C           4.2305397    -0.2119393     1.4961436
H           4.0982368    -0.2166867     2.5732082
C           3.1145277     0.0452457     0.6863751
C           3.2713638     0.0842061    -0.7062477
H           2.4184688     0.3025779    -1.3391222
C           4.5241313    -0.1379134    -1.2768067
H           4.6389147    -0.0976137    -2.3566264
O           1.7887372     0.7496822     2.5273293
C          -0.4738126    -3.2326476    -1.4413600
H          -0.7678664    -4.1390142    -1.9630109
C           0.2344877    -3.3103325    -0.2422439
H           0.4908232    -4.2788912     0.1784385
C           0.6047997    -2.1481185     0.4364109
H           1.1336958    -2.2140346     1.3826528
C           0.2887927    -0.8917921    -0.0956988
C          -0.4182049    -0.8170009    -1.3041442
H          -0.6523534     0.1579351    -1.7228014
C          -0.8033095    -1.9805144    -1.9667878
H          -1.3511213    -1.9086827    -2.9025708
29
048_C14H13NO_24-0-5-12 (75,) energy =    -671.2952781
N           0.7090825     0.2754955     0.4976267
C          -0.3998808     1.0412420     1.1047375
H          -0.0185873     2.0004317     1.4604732
H          -0.8559764     0.5115256     1.9497305
H          -1.1573647     1.2170326     0.3381735
C           1.8363301     0.1719659     1.3557719
C           5.7183596    -0.2291596    -0.4384631
H           6.7089268    -0.3198746    -0.8765116
C           5.5506279    -0.3575578     0.9433655
H           6.4092588    -0.5486653     1.5813464
C           4.2820986    -0.2389121     1.5038389
H           4.1311954    -0.3251767     2.5749672
C           3.1668020     0.0080559     0.6889605
C           3.3417436     0.1386012    -0.6961305
H           2.4846634     0.3466975    -1.3265883
C           4.6135928     0.0210410    -1.2551683
H           4.7430879     0.1297824    -2.3285543
O           1.7479065     0.3904651     2.5556919
C          -0.6525254    -3.2800755    -1.3798601
H          -1.0052754    -4.1852197    -1.8660608
C           0.0527282    -3.3566239    -0.1793635
H           0.2480971    -4.3226162     0.2784542
C           0.4988731    -2.1949735     0.4543007
H           1.0198909    -2.2590533     1.4050157
C           0.2616527    -0.9422320    -0.1254015
C          -0.4403284    -0.8695462    -1.3374226
H          -0.6099227     0.1017032    -1.7940482
C          -0.9022005    -2.0301805    -1.9535000
H          -1.4462587    -1.9596868    -2.8916346
29
048_C14H13NO_24-0-5-12 (90,) energy =    -671.2899886
N           0.7761765     0.1874161     0.4035026
C          -0.2720476     1.0408326     1.0080621
H           0.1799535     1.9783935     1.3414308
H          -0.7620496     0.5607421     1.8634671
H          -1.0183196     1.2619534     0.2417604
C           1.8772676    -0.0120522     1.3047948
C           5.8201897    -0.0018039    -0.3870232
H           6.8248146     0.0074708    -0.8018012
C           5.6288982    -0.2510915     0.9756842
H           6.4836177    -0.4365826     1.6204551
C           4.3427874    -0.2623168     1.5063809
H           4.1714941    -0.4505265     2.5612271
C           3.2334295    -0.0202701     0.6802956
C           3.4317152     0.2309820    -0.6851789
H           2.5739627     0.4316763    -1.3168642
C           4.7214717     0.2390202    -1.2145926
H           4.8698054     0.4382741    -2.2723954
O           1.7272502    -0.0016473     2.5162356
C          -0.8767281    -3.3343904    -1.3044840
H          -1.3016122    -4.2286354    -1.7517155
C          -0.1761135    -3.4143178    -0.1020176
H          -0.0564751    -4.3722945     0.3970436
C           0.3642148    -2.2659820     0.4820804
H           0.8784935    -2.3327400     1.4354832
C           0.2258304    -1.0240220    -0.1510091
C          -0.4708500    -0.9494867    -1.3666507
H          -0.5609225     0.0116805    -1.8654019
C          -1.0270057    -2.0940185    -1.9317641
H          -1.5657371    -2.0206589    -2.8728245
29
048_C14H13NO_24-0-5-12 (105,) energy =    -671.2868048
N           0.7202892    -0.2867827     0.7918350
C           0.5148948     1.1002088     0.3829094
H           1.1645873     1.7445413     0.9780348
H          -0.5223202     1.3908391     0.5849623
H           0.7259908     1.2847761    -0.6797694
C           1.9179688    -0.5745199     1.5156086
C           5.7214651     0.5175698    -0.1506363
H           6.6933476     0.7732638    -0.5642507
C           5.5716088     0.3499446     1.2295615
H           6.4256587     0.4754676     1.8893342
C           4.3288202     0.0141622     1.7579957
H           4.1969632    -0.1414672     2.8240370
C           3.2177651    -0.1367672     0.9136096
C           3.3745289     0.0315036    -0.4696655
H           2.5283374    -0.1183622    -1.1324085
C           4.6253398     0.3489021    -0.9987336
H           4.7443567     0.4617648    -2.0727191
O           1.8939985    -1.2364888     2.5372434
C          -1.3074720    -3.3569051    -1.3196535
H          -1.8245354    -4.1422796    -1.8630352
C          -0.4188425    -3.6703416    -0.2875378
H          -0.2419198    -4.7086109    -0.0184574
C           0.2423738    -2.6731407     0.4213653
H           0.9016413    -2.9395132     1.2380806
C           0.0405452    -1.3158746     0.0983159
C          -0.8635351    -1.0026028    -0.9331829
H          -1.0607423     0.0279868    -1.2026911
C          -1.5251759    -2.0170269    -1.6284245
H          -2.2173463    -1.7437100    -2.4209525
29
048_C14H13NO_24-0-5-12 (120,) energy =    -671.2908261
N           0.8145712    -0.3716446     0.6160422
C           0.6069693     1.0153932     0.2055790
H           1.3273842     1.6505203     0.7216516
H          -0.3991407     1.3376410     0.4977931
H           0.7201582     1.1691767    -0.8756464
C           1.9835347    -0.6772834     1.3518002
C           5.8095948     0.7263695    -0.0109958
H           6.7889851     1.0558308    -0.3475041
C           5.5817990     0.4847500     1.3471010
H           6.3827602     0.6261868     2.0675077
C           4.3299154     0.0534052     1.7764128
H           4.1421404    -0.1634362     2.8232300
C           3.2855346    -0.1185523     0.8555246
C           3.5208213     0.1229445    -0.5052016
H           2.7284825    -0.0417002    -1.2286838
C           4.7815730     0.5357365    -0.9361704
H           4.9616420     0.7050201    -1.9942012
O           1.9691267    -1.4563797     2.2917705
C          -1.5700215    -3.3701741    -1.2152690
H          -2.1759068    -4.1349003    -1.6924019
C          -0.6027237    -3.7149491    -0.2680704
H          -0.4521931    -4.7573622     0.0009555
C           0.1732753    -2.7449842     0.3582813
H           0.8924138    -3.0345430     1.1124347
C           0.0097817    -1.3836804     0.0320351
C          -0.9745163    -1.0385455    -0.9123240
H          -1.1463014    -0.0041208    -1.1829936
C          -1.7494729    -2.0250987    -1.5250498
H          -2.4997820    -1.7256782    -2.2524604
29
048_C14H13NO_24-0-5-12 (135,) energy =    -671.2945011
N           0.9227267    -0.4397425     0.4015420
C           0.7098599     0.9441773    -0.0181456
H           1.5120952     1.5659528     0.3762457
H          -0.2381143     1.3181840     0.3870250
H           0.6866040     1.0483233    -1.1099287
C           2.0479208    -0.7468901     1.1871154
C           5.9045582     0.8681819     0.1805841
H           6.8926917     1.2486556    -0.0639886
C           5.5757580     0.5762318     1.5074472
H           6.3071955     0.7293457     2.2961983
C           4.3131343     0.0788569     1.8189619
H           4.0504222    -0.1793676     2.8399103
C           3.3565029    -0.1087549     0.8107456
C           3.6938848     0.1818137    -0.5186631
H           2.9711300     0.0071895    -1.3100246
C           4.9656759     0.6615878    -0.8318289
H           5.2242773     0.8697373    -1.8664486
O           2.0143185    -1.5797580     2.0819372
C          -1.7821030    -3.3702144    -1.0639901
H          -2.4688058    -4.1164850    -1.4528013
C          -0.6683381    -3.7499190    -0.3111925
H          -0.4816976    -4.8014286    -0.1085843
C           0.2156202    -2.8050542     0.1996157
H           1.0533827    -3.1274263     0.8014994
C           0.0088667    -1.4325570    -0.0443048
C          -1.1182280    -1.0541612    -0.7961607
H          -1.3231788    -0.0108920    -1.0012683
C          -1.9976231    -2.0153645    -1.2979688
H          -2.8579313    -1.6885925    -1.8764621
29
048_C14H13NO_24-0-5-12 (150,) energy =    -671.2970109
N           1.0178355    -0.5080278     0.1559688
C           0.8067516     0.8675262    -0.2949710
H           1.6890548     1.4632835    -0.0715928
H          -0.0451476     1.3216631     0.2267315
H           0.6142051     0.9030151    -1.3729938
C           2.0943135    -0.8135256     0.9993317
C           5.9532265     0.9876117     0.3794835
H           6.9419682     1.4145882     0.2343216
C           5.4920590     0.7078521     1.6687069
H           6.1222574     0.9169606     2.5287858
C           4.2292823     0.1495570     1.8527010
H           3.8699065    -0.1023988     2.8454117
C           3.4013214    -0.1087389     0.7515288
C           3.8720688     0.1677804    -0.5399598
H           3.2498180    -0.0613464    -1.4004601
C           5.1451602     0.7076268    -0.7240489
H           5.5072697     0.9051086    -1.7293392
O           2.0323351    -1.6817324     1.8594344
C          -1.9665285    -3.3494698    -0.8715852
H          -2.7248617    -4.0753785    -1.1505314
C          -0.7128823    -3.7694287    -0.4187505
H          -0.4879474    -4.8302531    -0.3457088
C           0.2656820    -2.8499529    -0.0572881
H           1.2228767    -3.2009258     0.3031493
C           0.0077568    -1.4684065    -0.1400752
C          -1.2529606    -1.0502663    -0.5959637
H          -1.4938345     0.0031110    -0.6722834
C          -2.2257236    -1.9848679    -0.9573133
H          -3.1924130    -1.6309435    -1.3060289
29
048_C14H13NO_24-0-5-12 (165,) energy =    -671.2979907
N           1.1214879    -0.6030898    -0.0783855
C           0.9165468     0.7709375    -0.5436437
H           1.8520076     1.3221203    -0.4960811
H           0.1841453     1.2994073     0.0803465
H           0.5554334     0.7667056    -1.5767181
C           2.1766601    -0.9186899     0.7830246
C           5.9471710     1.1464186     0.5583864
H           6.9134000     1.6419936     0.5172796
C           5.3626855     0.8523443     1.7929581
H           5.8736879     1.1176379     2.7144739
C           4.1297348     0.2056125     1.8460810
H           3.6813445    -0.0591027     2.7985179
C           3.4518505    -0.1249812     0.6651773
C           4.0479983     0.1634045    -0.5708317
H           3.5460871    -0.1233930    -1.4910694
C           5.2928772     0.7911417    -0.6226554
H           5.7529042     0.9982674    -1.5851006
O           2.1200192    -1.8413073     1.5854603
C          -2.1056865    -3.2992996    -0.6692818
H          -2.9272192    -3.9900279    -0.8366904
C          -0.8033480    -3.7755599    -0.4948334
H          -0.6048472    -4.8434971    -0.5294643
C           0.2551657    -2.8987031    -0.2827575
H           1.2563298    -3.2856752    -0.1459271
C           0.0283584    -1.5121772    -0.2321542
C          -1.2786027    -1.0371862    -0.4107613
H          -1.4900917     0.0251478    -0.3769745
C          -2.3335543    -1.9266556    -0.6278408
H          -3.3377411    -1.5332557    -0.7622203
29
048_C14H13NO_24-0-5-12 (180,) energy =    -671.2974946
N           1.1417457    -0.7574045    -0.1141780
C           0.8247593     0.6730290    -0.2093515
H           1.5448786     1.2557571     0.3638732
H          -0.1717293     0.8405487     0.2077439
H           0.8311694     1.0382475    -1.2439024
C           2.3959818    -1.2334479     0.2410014
C           5.8073061     1.3683171     0.6500385
H           6.6867833     1.9971796     0.7593343
C           5.4626334     0.4642453     1.6579289
H           6.0740903     0.3863514     2.5528156
C           4.3431069    -0.3520968     1.5118124
H           4.0887147    -1.0839173     2.2719971
C           3.5327053    -0.2488535     0.3725994
C           3.8904346     0.6527789    -0.6391555
H           3.2946722     0.7164658    -1.5454048
C           5.0257909     1.4527617    -0.5031747
H           5.3006423     2.1386986    -1.2999448
O           2.6094447    -2.4183056     0.4741501
C          -2.2241187    -3.3056553    -0.5342752
H          -3.0951385    -3.9460832    -0.6418101
C          -1.3133697    -3.5218130     0.5016553
H          -1.4754177    -4.3317750     1.2079125
C          -0.1930044    -2.7059700     0.6516033
H           0.5109124    -2.8863572     1.4521240
C           0.0315317    -1.6570166    -0.2510421
C          -0.8812428    -1.4432571    -1.2927917
H          -0.7097661    -0.6418336    -2.0051372
C          -2.0034741    -2.2601004    -1.4301557
H          -2.6996065    -2.0795612    -2.2449273
