17
271_C6H8N2O_1-0-9-10 (-165,) energy =    -418.1890856
C           2.5560160    -0.6728151    -1.0201198
N           1.2283326    -0.4652080    -0.7726829
C           0.1811119    -1.1827384    -1.4733927
H          -0.4592236    -0.4975312    -2.0423078
H          -0.4452651    -1.7545827    -0.7777643
H           0.6671070    -1.8710115    -2.1660582
H           0.9714059     0.2401115    -0.0980108
C           3.4088737     0.9167205     0.9243371
H           2.5222481     1.0836519     1.5225946
C           3.4984486     0.1225261    -0.2126998
N           4.8015218     0.1759292    -0.6449357
H           5.1102374    -0.3561902    -1.4473562
C           5.5409369     0.9644101     0.1850781
H           6.5952555     1.1274607     0.0137899
C           4.6998275     1.4442733     1.1763302
H           4.9864160     2.0970233     1.9896388
O           2.9703215    -1.4470564    -1.8880685
17
271_C6H8N2O_1-0-9-10 (-150,) energy =    -418.1871410
C           2.5615424    -0.7624630    -0.9490614
N           1.2445969    -0.4222994    -0.8135186
C           0.1783952    -1.1354859    -1.4898397
H          -0.3748005    -0.4731779    -2.1667833
H          -0.5263344    -1.5755938    -0.7736196
H           0.6409223    -1.9319955    -2.0742566
H           1.0166218     0.3695766    -0.2304945
C           3.4276165     0.8090900     0.9963449
H           2.5673698     0.8820150     1.6492513
C           3.5114438     0.0500336    -0.1633874
N           4.7758565     0.2218965    -0.6736217
H           5.0901826    -0.2750698    -1.4956104
C           5.5023560     1.0446041     0.1377316
H           6.5287989     1.2942730    -0.0893981
C           4.6885973     1.4293785     1.1896189
H           4.9734412     2.0794446     2.0056869
O           2.9618060    -1.6327423    -1.7261704
17
271_C6H8N2O_1-0-9-10 (-135,) energy =    -418.1838166
C           2.5715831    -0.8533502    -0.8830525
N           1.2865680    -0.3855342    -0.8809737
C           0.1935593    -1.0948023    -1.5188910
H          -0.3178299    -0.4532650    -2.2459353
H          -0.5406050    -1.4514803    -0.7854453
H           0.6237868    -1.9508858    -2.0404949
H           1.0927435     0.4540905    -0.3546614
C           3.4623558     0.7121152     1.0481098
H           2.6302231     0.7173726     1.7402116
C           3.5365944    -0.0231218    -0.1257640
N           4.7536341     0.2513260    -0.7039939
H           5.0722814    -0.2150875    -1.5415911
C           5.4686354     1.1042902     0.0901770
H           6.4620267     1.4269202    -0.1865097
C           4.6901448     1.4111843     1.1910122
H           4.9750453     2.0620934     2.0063951
O           2.9397654    -1.8213602    -1.5503195
17
271_C6H8N2O_1-0-9-10 (-120,) energy =    -418.1795438
C           2.5636617    -0.9250511    -0.7976399
N           1.3274633    -0.3553312    -0.9354490
C           0.2113001    -1.0467689    -1.5541387
H          -0.2289181    -0.4380110    -2.3520588
H          -0.5707915    -1.2909434    -0.8240396
H           0.6008176    -1.9711491    -1.9829703
H           1.1726724     0.5364725    -0.4873486
C           3.5059603     0.6237200     1.1154795
H           2.7163244     0.5585588     1.8526064
C           3.5510313    -0.0709189    -0.0820429
N           4.7060327     0.3038298    -0.7296076
H           5.0129777    -0.1135285    -1.5964025
C           5.4184026     1.1766649     0.0503253
H           6.3707994     1.5685129    -0.2764993
C           4.6960401     1.3966155     1.2062408
H           4.9909328     2.0392154     2.0246540
O           2.8808575    -1.9891368    -1.3265983
17
271_C6H8N2O_1-0-9-10 (-105,) energy =    -418.1753370
C           2.5394911    -0.9767847    -0.7037363
N           1.3645277    -0.3440924    -1.0066749
C           0.2344010    -1.0338142    -1.6031869
H          -0.1335606    -0.4879915    -2.4791230
H          -0.5908202    -1.1550023    -0.8899684
H           0.5832795    -2.0196908    -1.9135740
H           1.2449491     0.5990430    -0.6650235
C           3.5615045     0.5382459     1.1909268
H           2.8282988     0.3997792     1.9743997
C           3.5460180    -0.0861873    -0.0427534
N           4.6308844     0.3790777    -0.7522287
H           4.9030815     0.0269008    -1.6581752
C           5.3623349     1.2431104     0.0251455
H           6.2701653     1.6952662    -0.3473841
C           4.7193391     1.3655309     1.2385452
H           5.0423126     1.9803892     2.0676212
O           2.7907534    -2.1306767    -1.0389877
17
271_C6H8N2O_1-0-9-10 (-90,) energy =    -418.1728276
C           2.4854896    -0.9770805    -0.6007247
N           1.3840347    -0.3364194    -1.1012990
C           0.2550625    -1.0479918    -1.6746107
H           0.0013113    -0.6452725    -2.6617057
H          -0.6305630    -0.9870350    -1.0297660
H           0.5479062    -2.0939242    -1.7753588
H           1.3042231     0.6551170    -0.9250521
C           3.6534825     0.4555191     1.2692927
H           3.0082513     0.2334690     2.1085546
C           3.5047345    -0.0434074    -0.0099832
N           4.5175618     0.4880738    -0.7796791
H           4.6952886     0.2373066    -1.7406966
C           5.3213147     1.2905023    -0.0050976
H           6.1823454     1.7888078    -0.4265690
C           4.8034494     1.2957567     1.2715847
H           5.2032890     1.8418568     2.1151473
O           2.6491013    -2.1896092    -0.6701277
17
271_C6H8N2O_1-0-9-10 (-75,) energy =    -418.1732382
C           2.4217117    -0.9431644    -0.4904195
N           1.4132910    -0.3329901    -1.1917727
C           0.2944176    -1.0687426    -1.7539816
H           0.1345388    -0.7955316    -2.8031261
H          -0.6318152    -0.8836008    -1.1954607
H           0.5371073    -2.1301489    -1.6880249
H           1.3741264     0.6761834    -1.1673234
C           3.7447033     0.3831962     1.3393178
H           3.1944069     0.0767617     2.2183114
C           3.4476351     0.0127871     0.0422138
N           4.3906385     0.5983911    -0.7789447
H           4.4567073     0.4471436    -1.7742004
C           5.2737216     1.3333855    -0.0255938
H           6.0907234     1.8675867    -0.4887598
C           4.8890935     1.2272291     1.2941283
H           5.3759430     1.7017543     2.1352951
O           2.4775296    -2.1530362    -0.3090645
17
271_C6H8N2O_1-0-9-10 (-60,) energy =    -418.1756897
C           2.3407191    -0.9567267    -0.3972088
N           1.4616659    -0.3839756    -1.2872607
C           0.3275150    -1.1176538    -1.8224457
H           0.1382431    -0.8193570    -2.8586153
H          -0.5844399    -0.9534817    -1.2330187
H           0.5708068    -2.1803362    -1.7868455
H           1.4521520     0.6250479    -1.3429658
C           3.7800251     0.2758361     1.3933289
H           3.2878332    -0.0793280     2.2880180
C           3.3894863    -0.0203157     0.1009771
N           4.2834903     0.6021894    -0.7504714
H           4.2848778     0.4944031    -1.7536331
C           5.2171576     1.2943547    -0.0208466
H           6.0087263     1.8458964    -0.5074673
C           4.9196286     1.1207965     1.3156848
H           5.4628892     1.5523949     2.1453276
O           2.2536068    -2.1216003    -0.0290198
17
271_C6H8N2O_1-0-9-10 (-45,) energy =    -418.1785710
C           2.2811245    -0.8657362    -0.2828006
N           1.5373742    -0.3594518    -1.3298974
C           0.3803014    -1.0834315    -1.8318118
H           0.1598661    -0.7592866    -2.8530056
H          -0.5103485    -0.9315953    -1.2070391
H           0.6136826    -2.1491750    -1.8313551
H           1.5553308     0.6433406    -1.4589032
C           3.8164975     0.2862579     1.4658877
H           3.3631077    -0.0996214     2.3680850
C           3.3641454     0.0330136     0.1836232
N           4.2120665     0.6932426    -0.6884850
H           4.1819354     0.5940338    -1.6922272
C           5.1797545     1.3583095     0.0193207
H           5.9491429     1.9261857    -0.4840031
C           4.9478652     1.1369492     1.3631331
H           5.5301364     1.5421006     2.1795088
O           2.0510650    -1.9568328     0.2248567
17
271_C6H8N2O_1-0-9-10 (-30,) energy =    -418.1806431
C           2.2204103    -0.8361180    -0.2358096
N           1.5825276    -0.4001168    -1.3851554
C           0.3954811    -1.0965785    -1.8587263
H           0.2124168    -0.8308765    -2.9037500
H          -0.4970954    -0.8577519    -1.2646009
H           0.5706896    -2.1707355    -1.7835919
H           1.6347165     0.5920366    -1.5771723
C           3.8552064     0.2146727     1.4716719
H           3.4444418    -0.2169287     2.3733852
C           3.3466830     0.0124370     0.2008250
N           4.1307952     0.7432833    -0.6767016
H           4.0813290     0.6589105    -1.6812253
C           5.1249511     1.3835089     0.0166620
H           5.8614040     1.9876117    -0.4939093
C           4.9661544     1.0890615     1.3575513
H           5.5819884     1.4640953     2.1635998
O           1.8775205    -1.8485714     0.3641050
17
271_C6H8N2O_1-0-9-10 (-15,) energy =    -418.1811804
C           1.7975227     0.1684590    -0.8300052
N           1.6354340    -1.2062845    -0.9288164
C           0.4553103    -1.7294635    -1.6042127
H           0.3651991    -2.7980956    -1.3904124
H           0.4891788    -1.5795611    -2.6918591
H          -0.4244000    -1.2094951    -1.2221102
H           2.4854539    -1.7435193    -1.0473603
C           3.6660647     1.8531401    -0.2797866
H           3.2596445     2.7038239    -0.8079925
C           3.0625738     0.6089683    -0.2180148
N           3.9072429    -0.2216803     0.5028591
H           3.6359142    -1.1240141     0.8649454
C           5.0018053     0.4894347     0.9225011
H           5.7643361     0.0287888     1.5345012
C           4.8891735     1.7768696     0.4330195
H           5.6110946     2.5702329     0.5707329
O           0.9302316     0.9569051    -1.1905239
17
271_C6H8N2O_1-0-9-10 (0,) energy =    -418.1800416
C           2.0009655     0.2350524    -0.9193667
N           1.7546821    -1.1293100    -0.9834993
C           0.4788889    -1.5883309    -1.5183052
H          -0.3582865    -1.4147132    -0.8284297
H           0.5478230    -2.6572565    -1.7387570
H           0.2736219    -1.0415499    -2.4393997
H           2.1285575    -1.6849401    -0.2241072
C           3.6813521     1.9171716     0.0361855
H           3.1208865     2.8113376    -0.1959319
C           3.2680164     0.6348821    -0.2837055
N           4.2091724    -0.2397287     0.2425698
H           4.2832769    -1.2147327    -0.0075657
C           5.2230956     0.4755315     0.8270530
H           6.0793632    -0.0241490     1.2577686
C           4.9124610     1.8182414     0.7309659
H           5.5034605     2.6333603     1.1256838
O           1.2467588     1.0560945    -1.4316926
17
271_C6H8N2O_1-0-9-10 (15,) energy =    -418.1811799
C           2.0241130     0.2321362    -0.9847928
N           1.7274130    -1.1213959    -0.9081800
C           0.4826430    -1.6050309    -1.4900489
H          -0.3990698    -1.3201292    -0.9000226
H           0.5243925    -2.6948115    -1.5713428
H           0.3732581    -1.1724855    -2.4855404
H           2.0341173    -1.5941865    -0.0670683
C           3.6378243     1.9146313     0.1086967
H           3.0551027     2.8093606    -0.0578855
C           3.2546278     0.6454199    -0.2889129
N           4.2350098    -0.2343218     0.1449161
H           4.3127131    -1.1907069    -0.1684612
C           5.2361914     0.4652488     0.7679803
H           6.1148770    -0.0372552     1.1469478
C           4.8818731     1.8008740     0.7791014
H           5.4548010     2.6024965     1.2248543
O           1.3311838     1.0189359    -1.6207953
17
271_C6H8N2O_1-0-9-10 (30,) energy =    -418.1806431
C           2.0653013     0.2296699    -1.0442884
N           1.6848069    -1.0868964    -0.8443306
C           0.4679283    -1.5877706    -1.4662644
H          -0.4396669    -1.2397783    -0.9545188
H           0.4838888    -2.6813538    -1.4643083
H           0.4312574    -1.2280667    -2.4955485
H           1.9437897    -1.4975161     0.0435316
C           3.6107455     1.9040086     0.1805465
H           3.0063742     2.7928159     0.0671333
C           3.2559324     0.6477955    -0.2783271
N           4.2753721    -0.2215417     0.0739507
H           4.3518670    -1.1683486    -0.2671390
C           5.2634889     0.4671124     0.7284421
H           6.1620728    -0.0303643     1.0646934
C           4.8680790     1.7876816     0.8265707
H           5.4238221     2.5787040     1.3113742
O           1.4623851     0.9817525    -1.8015028
17
271_C6H8N2O_1-0-9-10 (45,) energy =    -418.1785709
C           2.1251819     0.2028713    -1.0932601
N           1.6401929    -1.0521753    -0.7841322
C           0.4513126    -1.5675576    -1.4443249
H          -0.4745021    -1.1684495    -1.0081737
H           0.4375772    -2.6590842    -1.3745734
H           0.4837319    -1.2710114    -2.4937518
H           1.8591713    -1.4117922     0.1352599
C           3.5867432     1.8743318     0.2529739
H           2.9489467     2.7447385     0.1894408
C           3.2789108     0.6296304    -0.2655788
N           4.3468002    -0.2059539     0.0116827
H           4.4392382    -1.1449977    -0.3459454
C           5.3118590     0.4860096     0.6969323
H           6.2349726     0.0100428     0.9954237
C           4.8581062     1.7784861     0.8764192
H           5.3851824     2.5660816     1.3975115
O           1.6304930     0.9062372    -1.9659973
17
271_C6H8N2O_1-0-9-10 (60,) energy =    -418.1756898
C           2.1809160     0.1281926    -1.2188084
N           1.5509187    -1.0153543    -0.7857482
C           0.3921168    -1.5594032    -1.4725211
H          -0.5501406    -1.2138963    -1.0266811
H           0.4151823    -2.6537031    -1.4479679
H           0.4269115    -1.2162016    -2.5072993
H           1.7366208    -1.3165392     0.1608082
C           3.5619582     1.8023143     0.2252914
H           2.8943547     2.6520805     0.1929024
C           3.3033964     0.5679693    -0.3404409
N           4.4042691    -0.2327064    -0.0972269
H           4.5261429    -1.1623815    -0.4698368
C           5.3414344     0.4683695     0.6192802
H           6.2799582     0.0148197     0.9039624
C           4.8376142     1.7329882     0.8469377
H           5.3319290     2.5203249     1.3996541
O           1.8371802     0.7405358    -2.2223618
17
271_C6H8N2O_1-0-9-10 (75,) energy =    -418.1732358
C           2.2758470     0.0491163    -1.2482187
N           1.5019014    -0.9463103    -0.7088117
C           0.3571799    -1.5107196    -1.4017764
H          -0.5880919    -1.1941733    -0.9431830
H           0.4003737    -2.6057727    -1.4013332
H           0.3875075    -1.1466596    -2.4295804
H           1.6452090    -1.1706934     0.2656968
C           3.5513353     1.7191007     0.3145825
H           2.8372141     2.5309072     0.3330791
C           3.3743889     0.5155657    -0.3395632
N           4.5123386    -0.2377193    -0.1292726
H           4.6917464    -1.1342321    -0.5557793
C           5.4020925     0.4664381     0.6456327
H           6.3598510     0.0460128     0.9164383
C           4.8251422     1.6816914     0.9472473
H           5.2674763     2.4584932     1.5560886
O           2.0858435     0.5191050    -2.3631056
17
271_C6H8N2O_1-0-9-10 (90,) energy =    -418.1728288
C           2.3480767    -0.0343305    -1.3131359
N           1.4660377    -0.8685756    -0.6804338
C           0.3162627    -1.4493359    -1.3515614
H          -0.6228903    -0.9931843    -1.0138008
H           0.2677794    -2.5295501    -1.1743792
H           0.4349230    -1.2626147    -2.4197226
H           1.5447332    -0.9512225     0.3233444
C           3.4833350     1.6173560     0.3882098
H           2.6963665     2.3522395     0.4910571
C           3.4283570     0.4912259    -0.4095912
N           4.6203558    -0.1831722    -0.2531431
H           4.8788933    -1.0125874    -0.7661390
C           5.4391687     0.5085704     0.6075689
H           6.4287521     0.1463766     0.8459893
C           4.7560638     1.6291407     1.0272777
H           5.1264805     2.3758942     1.7163906
O           2.2920210     0.2223470    -2.5100611
17
271_C6H8N2O_1-0-9-10 (105,) energy =    -418.1753366
C           2.4137010    -0.1267785    -1.3529505
N           1.4277131    -0.7787823    -0.6634686
C           0.2849281    -1.3885682    -1.3198674
H          -0.6399611    -0.8296020    -1.1288018
H           0.1494100    -2.4215461    -0.9804904
H           0.4869073    -1.3852714    -2.3918804
H           1.4364253    -0.6993193     0.3435713
C           3.4208123     1.5054350     0.4497516
H           2.5730750     2.1534179     0.6288930
C           3.4641402     0.4743479    -0.4707559
N           4.7036320    -0.1170652    -0.3676431
H           5.0305791    -0.8489861    -0.9810547
C           5.4648910     0.5518150     0.5590823
H           6.4834967     0.2543285     0.7623411
C           4.6922280     1.5639067     1.0877824
H           5.0031880     2.2670167     1.8484755
O           2.4938426    -0.1265847    -2.5778951
17
271_C6H8N2O_1-0-9-10 (120,) energy =    -418.1795437
C           2.4604688    -0.2228924    -1.3299993
N           1.3809020    -0.7149652    -0.6486773
C           0.2540768    -1.3419994    -1.3149117
H          -0.6523016    -0.7270285    -1.2465652
H           0.0454523    -2.3267878    -0.8817103
H           0.5251620    -1.4630089    -2.3646616
H           1.3303018    -0.5272679     0.3424312
C           3.3928634     1.4036014     0.5219988
H           2.5093016     1.9786155     0.7665529
C           3.4776839     0.4352445    -0.4647012
N           4.7607618    -0.0618371    -0.4420466
H           5.1049553    -0.7329622    -1.1135237
C           5.5041896     0.6037264     0.4971030
H           6.5483849     0.3718550     0.6497879
C           4.6794559     1.5222232     1.1156803
H           4.9692144     2.2033185     1.9042545
O           2.6484105    -0.4157873    -2.5300303
17
271_C6H8N2O_1-0-9-10 (135,) energy =    -418.1838166
C           2.4928712    -0.3196347    -1.2843693
N           1.3281134    -0.6641139    -0.6559716
C           0.2228837    -1.2996269    -1.3483138
H          -0.6557508    -0.6439693    -1.3971932
H          -0.0625552    -2.2349300    -0.8530484
H           0.5604497    -1.5219211    -2.3615651
H           1.2185705    -0.3955997     0.3112282
C           3.3761890     1.3104137     0.5961161
H           2.4705777     1.8175485     0.9029869
C           3.4779905     0.3800201    -0.4276509
N           4.7935436    -0.0149516    -0.4921163
H           5.1353844    -0.6442377    -1.2047136
C           5.5343916     0.6688760     0.4314444
H           6.5988777     0.5089235     0.5250096
C           4.6790094     1.5034218     1.1271110
H           4.9613998     2.1774177     1.9244094
O           2.7672178    -0.6576609    -2.4369012
17
271_C6H8N2O_1-0-9-10 (150,) energy =    -418.1871411
C           2.5095905    -0.4080075    -1.2222756
N           1.2707342    -0.5995884    -0.6773345
C           0.1978277    -1.2678534    -1.3880601
H          -0.6670307    -0.6064681    -1.5220140
H          -0.1278261    -2.1704486    -0.8568755
H           0.5860093    -1.5539774    -2.3665037
H           1.1108580    -0.2729753     0.2643249
C           3.3657114     1.2303688     0.6717431
H           2.4502069     1.6792187     1.0350840
C           3.4717679     0.3204726    -0.3718183
N           4.8051706     0.0228761    -0.5204164
H           5.1358960    -0.5855063    -1.2565784
C           5.5481833     0.7327430     0.3778910
H           6.6244497     0.6433171     0.4119538
C           4.6787372     1.4962361     1.1380680
H           4.9598405     2.1714277     1.9348032
O           2.8498288    -0.8689218    -2.3146564
17
271_C6H8N2O_1-0-9-10 (165,) energy =    -418.1890855
C           2.5304216    -0.4981250    -1.1548351
N           1.2412888    -0.5531755    -0.7052026
C           0.1895901    -1.2403702    -1.4292244
H          -0.6200697    -0.5535083    -1.7048342
H          -0.2314287    -2.0612818    -0.8359165
H           0.6350856    -1.6507828    -2.3363037
H           1.0247649    -0.1239065     0.1822173
C           3.3771210     1.1327015     0.7578663
H           2.4607233     1.5022707     1.2000412
C           3.4791873     0.2537780    -0.3139071
N           4.8177304     0.0657750    -0.5601564
H           5.1338505    -0.5165718    -1.3238815
C           5.5644968     0.8039876     0.3086003
H           6.6443079     0.7934966     0.2710322
C           4.6942299     1.4820911     1.1471257
H           4.9779183     2.1543490     1.9454213
O           2.9145092    -1.0660866    -2.1816425
17
271_C6H8N2O_1-0-9-10 (180,) energy =    -418.1896819
C           2.5316854    -0.5770547    -1.0731124
N           1.2134181    -0.5015976    -0.7224626
C           0.1720224    -1.2072409    -1.4435279
H          -0.5582955    -0.5104752    -1.8730695
H          -0.3561473    -1.9134691    -0.7912304
H           0.6542180    -1.7600323    -2.2506989
H           0.9571564     0.0713263     0.0678477
C           3.3820138     1.0354330     0.8579037
H           2.4771628     1.3089875     1.3855722
C           3.4749062     0.1975058    -0.2475966
N           4.8027519     0.1272864    -0.5932775
H           5.1078952    -0.4330385    -1.3778582
C           5.5514746     0.8888398     0.2521031
H           6.6239128     0.9630219     0.1428815
C           4.6930693     1.4707499     1.1718821
H           4.9809742     2.1331837     1.9768412
O           2.9409353    -1.2495732    -2.0248215
