20
241_C8H9NO2_16-0-2-10 (-165,) energy =    -515.4795820
N           1.2989509    -1.0905533     0.1836742
H           1.7104107    -1.3314285     1.0810194
C           2.2341647    -0.6568347    -0.7620688
C           5.8167561     1.2145346     0.6930282
H           6.7327459     1.6761060     1.0522831
C           4.6496717     1.3485923     1.4364545
H           4.6264458     1.9171548     2.3607145
C           3.4608379     0.7572428     0.9915664
O           2.3537214     0.9530254     1.7671023
H           1.5661090     0.6430693     1.2798246
C           3.4516985     0.0144210    -0.2091497
C           4.6345392    -0.0724780    -0.9610909
H           4.5943215    -0.6146455    -1.9005603
C           5.8150514     0.5075221    -0.5156465
H           6.7246444     0.4165986    -1.1013783
O           2.0590243    -0.8375302    -1.9581634
C           0.2725210    -2.0349343    -0.2615112
H          -0.4300042    -2.2035860     0.5582155
H           0.7040390    -2.9923067    -0.5790583
H          -0.2598857    -1.6060121    -1.1112036
20
241_C8H9NO2_16-0-2-10 (-150,) energy =    -515.4761751
N           1.2452723    -1.0032876     0.1545232
H           1.6489141    -1.1364044     1.0775244
C           2.1762130    -0.5355879    -0.7786649
C           5.8441923     1.1145411     0.7371491
H           6.7817538     1.5137218     1.1147785
C           4.6810068     1.2901763     1.4796183
H           4.6827445     1.8314166     2.4204052
C           3.4667591     0.7798627     1.0084215
O           2.3627292     1.0073082     1.7875077
H           1.5566675     0.8286603     1.2697192
C           3.4229444     0.0737256    -0.2114678
C           4.6013388    -0.0506574    -0.9636522
H           4.5359557    -0.5597340    -1.9198551
C           5.8097233     0.4490447    -0.4936910
H           6.7161187     0.3269524    -1.0788054
O           2.0098436    -0.6950464    -1.9788148
C           0.4075016    -2.1391312    -0.2432367
H          -0.3223912    -2.3337854     0.5463014
H           1.0047352    -3.0424401    -0.4215060
H          -0.1182712    -1.8891507    -1.1651577
20
241_C8H9NO2_16-0-2-10 (-135,) energy =    -515.4704959
N           1.1449798    -0.9072430     0.1075638
H           1.5147071    -0.9231530     1.0540122
C           2.0754471    -0.4055540    -0.8106305
C           5.8311116     1.0006963     0.7461482
H           6.7915792     1.3269908     1.1358757
C           4.6800344     1.2128921     1.4991639
H           4.7135298     1.7144266     2.4611218
C           3.4400234     0.7961242     1.0075831
O           2.3466834     1.0519800     1.8007172
H           1.5379492     1.0383432     1.2602279
C           3.3513112     0.1414832    -0.2364891
C           4.5182802    -0.0159437    -0.9997989
H           4.4237835    -0.4815273    -1.9753377
C           5.7539387     0.3934729    -0.5119732
H           6.6505895     0.2449334    -1.1059624
O           1.9137408    -0.5362317    -2.0148494
C           0.5177503    -2.1955040    -0.2154048
H          -0.2869664    -2.3908694     0.4979311
H           1.2432901    -3.0188874    -0.1794314
H           0.0985194    -2.1429852    -1.2204809
20
241_C8H9NO2_16-0-2-10 (-120,) energy =    -515.4684773
N           1.0012478    -0.5469618     0.0828285
H           0.2521727     0.0036536    -0.3424402
C           2.1278183    -0.4814903    -0.8761777
C           5.8845596     0.9744032     0.5441522
H           6.8481092     1.3426915     0.8875417
C           4.8171280     0.9463140     1.4264326
H           4.9185110     1.2843311     2.4527163
C           3.5568140     0.4736481     1.0130116
O           2.5709066     0.4772948     1.9216474
H           1.7548869     0.1248607     1.4502842
C           3.3946199     0.0250925    -0.3294880
C           4.5047777     0.0706570    -1.2030145
H           4.3514474    -0.2752309    -2.2202481
C           5.7369801     0.5353693    -0.7836410
H           6.5788109     0.5615734    -1.4685400
O           1.9592026    -0.8256774    -2.0312119
C           0.5040231    -1.9362873     0.2270502
H           0.2658001    -2.3916371    -0.7408187
H          -0.3870371    -1.9260043     0.8599278
H           1.2717919    -2.5371267     0.7232830
20
241_C8H9NO2_16-0-2-10 (-105,) energy =    -515.4698375
N           0.9522355    -0.4938102     0.0137232
H           0.1413295    -0.1162749    -0.4800468
C           2.0647966    -0.3672456    -0.9395918
C           5.8667663     0.8737359     0.5670049
H           6.8407044     1.1897094     0.9324174
C           4.7841996     0.8786174     1.4320532
H           4.8837317     1.1946628     2.4655069
C           3.5122278     0.4703440     0.9897444
O           2.5105154     0.5059569     1.8839770
H           1.6815094     0.2312785     1.3923142
C           3.3511758     0.0555314    -0.3623033
C           4.4735959     0.0715309    -1.2191522
H           4.3200257    -0.2421208    -2.2468156
C           5.7197012     0.4700304    -0.7712708
H           6.5721859     0.4721901    -1.4433623
O           1.8686293    -0.5634278    -2.1252744
C           0.6577926    -1.9200349     0.3028341
H           0.4858768    -2.4972895    -0.6137154
H          -0.2272641    -1.9745842     0.9418309
H           1.5015761    -2.3560397     0.8457860
20
241_C8H9NO2_16-0-2-10 (-90,) energy =    -515.4721141
N           0.9142336    -0.4801967    -0.0670186
H           0.0698430    -0.2540017    -0.5946219
C           2.0087985    -0.2669612    -1.0003748
C           5.8401611     0.7787458     0.5897972
H           6.8200133     1.0469864     0.9767290
C           4.7436830     0.8095690     1.4382429
H           4.8385085     1.1029390     2.4788274
C           3.4661566     0.4609976     0.9665812
O           2.4482835     0.5238469     1.8475874
H           1.6155921     0.3147122     1.3427643
C           3.3097085     0.0797537    -0.3932944
C           4.4419911     0.0748103    -1.2340301
H           4.2916151    -0.2049923    -2.2719483
C           5.6972348     0.4120588    -0.7582291
H           6.5589010     0.3957247    -1.4183291
O           1.8008633    -0.3064988    -2.2005559
C           0.8048109    -1.8942803     0.3721385
H           0.7137718    -2.5833258    -0.4768211
H          -0.0727167    -1.9950511     1.0158881
H           1.6905886    -2.1613246     0.9549826
20
241_C8H9NO2_16-0-2-10 (-75,) energy =    -515.4742906
N           0.8879278    -0.5014885    -0.1447782
H           0.0267634    -0.3906846    -0.6800524
C           1.9562003    -0.1673577    -1.0439410
C           5.8131654     0.6939123     0.6052207
H           6.7971887     0.9191211     1.0084104
C           4.7063943     0.7584928     1.4403457
H           4.7981433     1.0391937     2.4847290
C           3.4255267     0.4647407     0.9461900
O           2.3939556     0.5633562     1.8156892
H           1.5614609     0.3916277     1.3093220
C           3.2719171     0.1034251    -0.4164380
C           4.4099986     0.0717633    -1.2448658
H           4.2620026    -0.1816786    -2.2899633
C           5.6729944     0.3514726    -0.7479997
H           6.5412297     0.3107213    -1.3984033
O           1.7362061    -0.0367987    -2.2366120
C           0.9347045    -1.8703682     0.4224495
H           0.9294656    -2.6415293    -0.3581644
H           0.0646708    -2.0099991     1.0691273
H           1.8347329    -1.9856995     1.0303953
20
241_C8H9NO2_16-0-2-10 (-60,) energy =    -515.4753815
N           0.8724842    -0.5636458    -0.2304314
H           0.0103697    -0.5359021    -0.7721911
C           1.9114279    -0.0876237    -1.0708564
C           5.7831062     0.6239851     0.6243150
H           6.7686486     0.8151842     1.0408976
C           4.6676216     0.7214646     1.4466418
H           4.7547990     0.9968986     2.4928610
C           3.3872772     0.4718932     0.9321806
O           2.3422189     0.6055690     1.7882975
H           1.5129967     0.4530510     1.2819742
C           3.2387293     0.1190814    -0.4300845
C           4.3810918     0.0618352    -1.2471853
H           4.2390048    -0.1736209    -2.2974135
C           5.6478317     0.2951295    -0.7314254
H           6.5217736     0.2311881    -1.3722819
O           1.6791119     0.2052277    -2.2332961
C           1.0362424    -1.8652850     0.4493527
H           1.0828064    -2.6989901    -0.2629269
H           0.1872834    -2.0197720     1.1205377
H           1.9479665    -1.8621316     1.0478662
20
241_C8H9NO2_16-0-2-10 (-45,) energy =    -515.4749349
N           0.8729235    -0.6334090    -0.3116166
H           0.0149404    -0.6566077    -0.8569233
C           1.8756278    -0.0141609    -1.0734187
C           5.7696998     0.5727441     0.6289852
H           6.7593216     0.7345064     1.0481452
C           4.6544669     0.6981295     1.4495726
H           4.7466100     0.9680552     2.4968375
C           3.3718698     0.4876406     0.9274638
O           2.3230561     0.6494427     1.7816200
H           1.4916593     0.5198082     1.2818231
C           3.2155834     0.1422276    -0.4326339
C           4.3545336     0.0621402    -1.2492966
H           4.2101510    -0.1587109    -2.3024495
C           5.6272125     0.2558066    -0.7277293
H           6.5000036     0.1722550    -1.3679381
O           1.6252586     0.4187811    -2.1889774
C           1.1026183    -1.8582962     0.4706927
H           1.2574013    -2.7349652    -0.1719087
H           0.2294210    -2.0377173     1.1038689
H           1.9714756    -1.7403976     1.1171040
20
241_C8H9NO2_16-0-2-10 (-30,) energy =    -515.4732827
N           0.8881925    -0.7141841    -0.3833173
H           0.0335421    -0.7648452    -0.9290529
C           1.8464115     0.0390202    -1.0528042
C           5.7680789     0.5341469     0.6281201
H           6.7633382     0.6723270     1.0421340
C           4.6595700     0.6832141     1.4549017
H           4.7629102     0.9495871     2.5020515
C           3.3720862     0.5047327     0.9359613
O           2.3270174     0.6891032     1.7968857
H           1.4906580     0.5969328     1.3041460
C           3.1991307     0.1640899    -0.4201610
C           4.3296946     0.0628324    -1.2441786
H           4.1765578    -0.1493697    -2.2979097
C           5.6100671     0.2252021    -0.7279043
H           6.4767900     0.1245953    -1.3739527
O           1.5731525     0.5846820    -2.1138988
C           1.1421035    -1.8617261     0.4923314
H           1.4319209    -2.7577974    -0.0725904
H           0.2268016    -2.0828818     1.0484576
H           1.9261794    -1.6336865     1.2125825
20
241_C8H9NO2_16-0-2-10 (-15,) energy =    -515.4710298
N           0.9171627    -0.8013793    -0.4796781
H           0.0666098    -0.8568593    -1.0289049
C           1.8263221     0.0696109    -1.0474183
C           5.7667990     0.5084157     0.6210945
H           6.7659285     0.6295683     1.0309330
C           4.6635422     0.6746539     1.4521693
H           4.7747833     0.9378035     2.4993575
C           3.3728534     0.5204116     0.9355608
O           2.3325860     0.7177748     1.8047909
H           1.4937019     0.6814113     1.3140288
C           3.1866540     0.1821664    -0.4167738
C           4.3113033     0.0644012    -1.2458948
H           4.1526733    -0.1438100    -2.2996442
C           5.5968564     0.2059121    -0.7343478
H           6.4585423     0.0933824    -1.3852275
O           1.5311009     0.7029078    -2.0542070
C           1.1552308    -1.8711930     0.4860955
H           1.5380279    -2.7833812     0.0089266
H           0.2088985    -2.1112020     0.9793632
H           1.8613527    -1.5548456     1.2520527
20
241_C8H9NO2_16-0-2-10 (0,) energy =    -515.4697125
N           1.4220490    -1.9006769    -0.1275751
H           0.9989964    -2.8212132    -0.1581879
C           2.7941849    -1.9610729    -0.0320009
C           5.0796311     1.6849608     0.0604417
H           5.6646435     2.6005391     0.0791307
C           4.1114009     1.4741972     1.0371302
H           3.9357286     2.1951628     1.8293078
C           3.3535291     0.2984661     1.0234980
O           2.4408211     0.1401439     2.0332463
H           2.0901276    -0.7646007     2.0089681
C           3.5509061    -0.6604184     0.0142322
C           4.5629247    -0.4480947    -0.9326213
H           4.7406982    -1.2186530    -1.6767005
C           5.3155965     0.7217107    -0.9264449
H           6.0838727     0.8799786    -1.6771482
O           3.3730699    -3.0419877    -0.0525843
C           0.5416796    -0.7425268    -0.1943297
H          -0.2418268    -0.9272895    -0.9362700
H           1.1103895     0.1326827    -0.5122839
H           0.0630002    -0.5140745     0.7658812
20
241_C8H9NO2_16-0-2-10 (15,) energy =    -515.4715946
N           1.4186296    -1.9090055     0.0041855
H           1.0017612    -2.8314939    -0.0508866
C           2.7979986    -1.9624831    -0.0578225
C           5.0901994     1.6730441     0.0701159
H           5.6804350     2.5849953     0.1007912
C           4.1137814     1.4601971     1.0378395
H           3.9365971     2.1762643     1.8340958
C           3.3469437     0.2900110     1.0090923
O           2.4278378     0.1280889     2.0090546
H           2.0337046    -0.7576587     1.9370816
C           3.5493930    -0.6630680    -0.0072039
C           4.5693434    -0.4476842    -0.9452296
H           4.7479556    -1.2154385    -1.6918852
C           5.3276254     0.7177058    -0.9247025
H           6.1016503     0.8789724    -1.6687905
O           3.3730644    -3.0387524    -0.1701246
C           0.5338364    -0.7626821    -0.1797053
H          -0.1856072    -0.9752480    -0.9781715
H           1.1183752     0.1095529    -0.4743856
H          -0.0227150    -0.5162217     0.7318707
20
241_C8H9NO2_16-0-2-10 (30,) energy =    -515.4733991
N           1.4251436    -1.9084195     0.1511087
H           1.0190119    -2.8366803     0.0911739
C           2.7979429    -1.9570204    -0.0651014
C           5.1111987     1.6588248     0.0818299
H           5.7099687     2.5649743     0.1199429
C           4.1326902     1.4479817     1.0474374
H           3.9618321     2.1601089     1.8485768
C           3.3517064     0.2866685     1.0096702
O           2.4299009     0.1275382     2.0036881
H           2.0020642    -0.7419559     1.8980799
C           3.5496265    -0.6620399    -0.0144816
C           4.5711589    -0.4474186    -0.9515493
H           4.7422445    -1.2122650    -1.7028926
C           5.3395785     0.7103860    -0.9223201
H           6.1147770     0.8714001    -1.6651925
O           3.3562898    -3.0283230    -0.2623671
C           0.5263169    -0.7967023    -0.1674531
H          -0.0568438    -1.0189850    -1.0694345
H           1.1071744     0.1061110    -0.3541427
H          -0.1676871    -0.6008786     0.6565711
20
241_C8H9NO2_16-0-2-10 (45,) energy =    -515.4749363
N           1.4362892    -1.9024383     0.2832257
H           1.0466402    -2.8397257     0.2221948
C           2.7894799    -1.9490025    -0.0852820
C           5.1507282     1.6296718     0.0693911
H           5.7640580     2.5260354     0.1092048
C           4.1767864     1.4273161     1.0406017
H           4.0231129     2.1366718     1.8476333
C           3.3736287     0.2803479     1.0011768
O           2.4549683     0.1339812     1.9963061
H           1.9994023    -0.7236845     1.8753979
C           3.5523215    -0.6661078    -0.0311714
C           4.5698253    -0.4588050    -0.9758358
H           4.7224589    -1.2206751    -1.7341251
C           5.3556481     0.6860430    -0.9450464
H           6.1266359     0.8414129    -1.6934099
O           3.3127318    -3.0135332    -0.3812979
C           0.5142081    -0.8544172    -0.1815098
H           0.2771355    -0.9584250    -1.2485103
H           0.9441947     0.1322371    -0.0138731
H          -0.4141015    -0.9235810     0.3921918
20
241_C8H9NO2_16-0-2-10 (60,) energy =    -515.4753807
N           1.4666337    -1.7746836     0.3055254
H           1.1010539    -2.7221225     0.2267027
C           2.7965807    -1.7961837    -0.1875372
C           5.2383135     1.6937546     0.2903585
H           5.8718751     2.5688520     0.4095219
C           4.2174981     1.4645390     1.2043757
H           4.0450611     2.1315132     2.0430940
C           3.3835425     0.3458529     1.0655721
O           2.4203095     0.1745969     2.0067962
H           1.9525694    -0.6686166     1.8132335
C           3.5877112    -0.5478751    -0.0122740
C           4.6498436    -0.3103885    -0.9018896
H           4.8109680    -1.0298100    -1.6988035
C           5.4639113     0.8053907    -0.7700103
H           6.2700397     0.9831369    -1.4750791
O           3.2653892    -2.8232375    -0.6527220
C           0.5133428    -0.7860651    -0.2398234
H          -0.4296745    -0.8720987     0.3063708
H           0.3208211    -0.9444854    -1.3086530
H           0.8989316     0.2240539    -0.0966755
20
241_C8H9NO2_16-0-2-10 (75,) energy =    -515.4742927
N           1.4803290    -1.7259340     0.3942012
H           1.1665477    -2.6963104     0.3746556
C           2.7662217    -1.7175858    -0.2448087
C           5.3040324     1.6835158     0.3293720
H           5.9616504     2.5377598     0.4685896
C           4.2626756     1.4758657     1.2232423
H           4.0951849     2.1402194     2.0649859
C           3.3944627     0.3845042     1.0612530
O           2.4125730     0.2387278     1.9800864
H           1.9320314    -0.6001473     1.7698078
C           3.5926902    -0.5066178    -0.0238871
C           4.6732412    -0.2843218    -0.8988018
H           4.8192431    -0.9957901    -1.7055661
C           5.5195446     0.8014275    -0.7400126
H           6.3407531     0.9642430    -1.4311203
O           3.1567516    -2.7015343    -0.8508060
C           0.4489502    -0.8677207    -0.2360614
H          -0.4786849    -0.9582619     0.3349232
H           0.2580500    -1.1501535    -1.2790647
H           0.7702440     0.1756382    -0.2037342
20
241_C8H9NO2_16-0-2-10 (90,) energy =    -515.4721137
N           1.4846316    -1.6670532     0.4518473
H           1.2491146    -2.6583747     0.5175227
C           2.7270270    -1.6229146    -0.3021736
C           5.3805122     1.6637238     0.3749297
H           6.0673338     2.4908206     0.5360860
C           4.3199558     1.4816644     1.2496991
H           4.1630898     2.1412870     2.0971360
C           3.4124931     0.4247384     1.0614161
O           2.4126534     0.3063484     1.9573208
H           1.9091688    -0.5198996     1.7213679
C           3.5969280    -0.4596270    -0.0353548
C           4.6949421    -0.2569563    -0.8968420
H           4.8212117    -0.9564945    -1.7171308
C           5.5784578     0.7915916    -0.7077515
H           6.4140061     0.9365272    -1.3854848
O           3.0249646    -2.5476923    -1.0378931
C           0.3664492    -0.9851855    -0.2478128
H          -0.5469517    -1.1193007     0.3372324
H           0.2113982    -1.3806962    -1.2594134
H           0.5790469     0.0854996    -0.3118497
20
241_C8H9NO2_16-0-2-10 (105,) energy =    -515.4698369
N           1.4708293    -1.5832263     0.4828685
H           1.3395213    -2.5795082     0.6675720
C           2.6801767    -1.5121955    -0.3505724
C           5.4663341     1.6354237     0.4210327
H           6.1869945     2.4285173     0.6042586
C           4.3933258     1.4817417     1.2843789
H           4.2570586     2.1319504     2.1425525
C           3.4412092     0.4677955     1.0706274
O           2.4307204     0.3774437     1.9511295
H           1.8837546    -0.4153835     1.6748662
C           3.5981324    -0.4029151    -0.0443243
C           4.7080872    -0.2238478    -0.8987869
H           4.8064643    -0.9074608    -1.7360603
C           5.6342068     0.7797669    -0.6813085
H           6.4792115     0.9047567    -1.3512349
O           2.8843921    -2.3681378    -1.1923170
C           0.2770139    -1.1219608    -0.2699049
H          -0.6104090    -1.2730966     0.3499617
H           0.1583748    -1.6582706    -1.2191808
H           0.3754403    -0.0518409    -0.4748705
20
241_C8H9NO2_16-0-2-10 (120,) energy =    -515.4684776
N           1.4450761    -1.4829382     0.4720101
H           1.4363294    -2.4491221     0.8059559
C           2.6283451    -1.3855803    -0.4131350
C           5.5501866     1.6027078     0.4722200
H           6.3045141     2.3570257     0.6819489
C           4.4597207     1.4821479     1.3177576
H           4.3400181     2.1218292     2.1862490
C           3.4650079     0.5161653     1.0724581
O           2.4400225     0.4575300     1.9347210
H           1.8464866    -0.2884642     1.6129270
C           3.5972267    -0.3383467    -0.0598746
C           4.7242895    -0.1889940    -0.8995067
H           4.8000557    -0.8547666    -1.7532782
C           5.6926014     0.7645433    -0.6479473
H           6.5509200     0.8654790    -1.3048626
O           2.7468752    -2.1524890    -1.3505752
C           0.1912095    -1.2645303    -0.2883298
H          -0.6577369    -1.4462139     0.3756811
H           0.1217726    -1.9175311    -1.1656314
H           0.1540002    -0.2218845    -0.6173174
20
241_C8H9NO2_16-0-2-10 (135,) energy =    -515.4689681
N           1.4270517    -1.3917845     0.4234663
H           1.5544176    -2.2666856     0.9363540
C           2.5723193    -1.2523988    -0.4977366
C           5.6338950     1.5545606     0.5156985
H           6.4213385     2.2649902     0.7548560
C           4.5216003     1.4737134     1.3374861
H           4.4151826     2.1047086     2.2140403
C           3.4873612     0.5607364     1.0569493
O           2.4414165     0.5408719     1.8970225
H           1.8045670    -0.1443888     1.5308816
C           3.5970476    -0.2768120    -0.0895136
C           4.7431828    -0.1640499    -0.9081600
H           4.7990073    -0.8111796    -1.7776129
C           5.7542666     0.7333321    -0.6189676
H           6.6282604     0.8039731    -1.2589784
O           2.5986248    -1.8786552    -1.5407886
C           0.1301585    -1.4161554    -0.2841029
H          -0.6616220    -1.5953895     0.4478093
H           0.0916495    -2.1810239    -1.0667997
H          -0.0369090    -0.4370464    -0.7410897
20
241_C8H9NO2_16-0-2-10 (150,) energy =    -515.4726316
N           1.4374643    -1.3731230     0.3261204
H           1.7048944    -1.9994054     1.0826034
C           2.4935382    -1.1022390    -0.6043172
C           5.7038573     1.4771830     0.5899804
H           6.5242072     2.1320150     0.8726263
C           4.5606781     1.4431694     1.3752527
H           4.4611040     2.0618853     2.2614070
C           3.4891603     0.5995368     1.0385750
O           2.4069535     0.6322869     1.8468317
H           1.7282813     0.0419561     1.4325954
C           3.5809728    -0.2133416    -0.1206833
C           4.7488442    -0.1431969    -0.9061225
H           4.7882022    -0.7615904    -1.7972718
C           5.8061361     0.6831144    -0.5622163
H           6.7001147     0.7171920    -1.1772347
O           2.3961457    -1.4590726    -1.7671241
C           0.1119044    -1.6258101    -0.2481006
H          -0.6150677    -1.6738027     0.5669581
H           0.0629934    -2.5497252    -0.8361054
H          -0.1451558    -0.7921614    -0.9045378
20
241_C8H9NO2_16-0-2-10 (165,) energy =    -515.4775878
N           1.4181987    -1.3109832     0.2417948
H           1.7645011    -1.7367913     1.0964853
C           2.4017215    -0.9436228    -0.6955385
C           5.7554714     1.3871072     0.6287289
H           6.6121538     1.9749551     0.9479947
C           4.5929799     1.4118133     1.3882024
H           4.5140672     2.0148674     2.2871764
C           3.4766205     0.6565524     1.0006039
O           2.3721616     0.7527730     1.7865742
H           1.6476699     0.2645083     1.3388814
C           3.5398620    -0.1333727    -0.1718137
C           4.7210373    -0.1172155    -0.9354403
H           4.7362876    -0.7077820    -1.8461295
C           5.8264115     0.6238626    -0.5444702
H           6.7328181     0.6147386    -1.1419763
O           2.2473281    -1.1786955    -1.8850416
C           0.1371385    -1.8046213    -0.2608194
H          -0.5660163    -1.8650578     0.5738277
H           0.2173681    -2.7872419    -0.7414201
H          -0.2410434    -1.0984503    -1.0018351
20
241_C8H9NO2_16-0-2-10 (180,) energy =    -515.4800953
N           1.3548860    -1.1983663     0.2068787
H           1.7451479    -1.5323367     1.0833407
C           2.3035524    -0.7946530    -0.7418433
C           5.7882623     1.2971666     0.6452233
H           6.6787261     1.8201985     0.9840608
C           4.6225593     1.3812311     1.3969550
H           4.5748804     1.9689993     2.3081761
C           3.4644716     0.7103400     0.9815501
O           2.3581986     0.8620138     1.7622726
H           1.5971285     0.4580846     1.2977286
C           3.4873520    -0.0582086    -0.2045638
C           4.6697915    -0.0983691    -0.9627932
H           4.6533564    -0.6660141    -1.8879340
C           5.8183014     0.5597403    -0.5452956
H           6.7268185     0.5059805    -1.1372311
O           2.1266508    -0.9939383    -1.9348504
C           0.1765517    -1.9232082    -0.2672420
H          -0.5183002    -2.0470842     0.5670556
H           0.4293250    -2.9062277    -0.6830531
H          -0.3026525    -1.3389055    -1.0540638
