20
241_C8H9NO2_0-2-10-11 (-165,) energy =    -515.4802586
N           1.2299046    -1.0785692    -0.1345086
H           1.1472541    -0.5765291     0.7377101
C           2.4423840    -1.1263203    -0.7508653
C           5.7196110     1.3977996     0.5225792
H           6.5539355     2.0276698     0.8188939
C           4.6330754     1.2494098     1.3808022
H           4.6204940     1.7586313     2.3434571
C           3.5483703     0.4461886     1.0156168
O           2.4754951     0.3049131     1.8675396
H           2.6295876     0.8389488     2.6620831
C           3.5402087    -0.2330425    -0.2179499
C           4.6493140    -0.0648803    -1.0593846
H           4.6286141    -0.6013249    -2.0019852
C           5.7293853     0.7381831    -0.7074782
H           6.5712506     0.8485178    -1.3842263
O           2.6348007    -1.8275877    -1.7441600
C           0.1426315    -1.9295549    -0.5832266
H          -0.7842045    -1.5984378    -0.1077775
H           0.3156873    -2.9845160    -0.3332957
H           0.0393078    -1.8567490    -1.6688257
20
241_C8H9NO2_0-2-10-11 (-150,) energy =    -515.4801723
N           1.6817513    -0.6706870    -0.3691492
H           1.9467732    -0.1787161    -1.2173912
C           2.7609203    -1.1280933     0.3948570
C           6.3340174     1.2546123     0.3902347
H           7.2468093     1.8445794     0.3877139
C           5.1076749     1.8960428     0.2608352
H           5.0387204     2.9753552     0.1692842
C           3.9200711     1.1527142     0.2550291
O           2.7579183     1.8557411     0.1380093
H           2.0078405     1.2373440     0.2448372
C           3.9733287    -0.2530829     0.3835091
C           5.2231957    -0.8739178     0.5406690
H           5.2373395    -1.9519270     0.6680923
C           6.3999483    -0.1367654     0.5346751
H           7.3586825    -0.6342383     0.6442773
O           2.6893802    -2.1645374     1.0384845
C           0.5138955    -1.5412836    -0.4994243
H           0.7374469    -2.4547152    -1.0643349
H          -0.2840981    -0.9878521    -1.0004665
H           0.1811250    -1.8347425     0.4970062
20
241_C8H9NO2_0-2-10-11 (-135,) energy =    -515.4785719
N           1.7333086    -0.7169353    -0.4105453
H           2.0727761    -0.2656369    -1.2531164
C           2.7147019    -1.0788231     0.5085005
C           6.3241151     1.2437577     0.3471440
H           7.2425132     1.8232180     0.3029305
C           5.1001287     1.9029276     0.3068979
H           5.0403044     2.9843550     0.2357595
C           3.9065736     1.1714885     0.3501831
O           2.7433399     1.8808907     0.2882988
H           1.9937413     1.2554799     0.3080352
C           3.9514034    -0.2335291     0.4694343
C           5.1972099    -0.8766296     0.5086972
H           5.2095941    -1.9582060     0.6058186
C           6.3814366    -0.1515041     0.4432972
H           7.3387634    -0.6628587     0.4702225
O           2.5641284    -2.0205715     1.2724680
C           0.5594938    -1.5719003    -0.5663808
H           0.8080834    -2.5352813    -1.0290558
H          -0.1792868    -1.0526974    -1.1818126
H           0.1357096    -1.7708465     0.4189591
20
241_C8H9NO2_0-2-10-11 (-120,) energy =    -515.4755464
N           1.7884027    -0.7784091    -0.4609607
H           2.1967021    -0.3833281    -1.2994421
C           2.6541717    -1.0028344     0.5960914
C           6.3191924     1.2263213     0.3106538
H           7.2466297     1.7878589     0.2360321
C           5.1085387     1.9116838     0.3394630
H           5.0677860     2.9950063     0.2850251
C           3.9051852     1.2015209     0.4224199
O           2.7494368     1.9286375     0.4087136
H           1.9927247     1.3165591     0.3657469
C           3.9259636    -0.2027765     0.5271602
C           5.1541438    -0.8747854     0.4748447
H           5.1532371    -1.9590329     0.5433433
C           6.3501260    -0.1711969     0.3679042
H           7.2959126    -0.7032126     0.3325494
O           2.3993687    -1.7969337     1.4894416
C           0.5933415    -1.5987736    -0.6197505
H           0.8258353    -2.5907071    -1.0281323
H          -0.1088388    -1.0905170    -1.2855852
H           0.1336960    -1.7354545     0.3600006
20
241_C8H9NO2_0-2-10-11 (-105,) energy =    -515.4724697
N           1.8781535    -0.9079608    -0.4892717
H           2.3363302    -0.5848964    -1.3310766
C           2.6221667    -0.9132920     0.6679581
C           6.3589134     1.1954369     0.3009592
H           7.3003920     1.7308267     0.2122039
C           5.1703814     1.9150420     0.3825548
H           5.1602106     3.0001131     0.3552378
C           3.9511294     1.2373190     0.4910889
O           2.8170074     1.9990970     0.5373164
H           2.0382030     1.4183522     0.5350713
C           3.9301122    -0.1668969     0.5498303
C           5.1340763    -0.8741017     0.4480045
H           5.1084637    -1.9599518     0.4854996
C           6.3482398    -0.2026317     0.3257318
H           7.2760100    -0.7619819     0.2532078
O           2.2537575    -1.4713108     1.6925068
C           0.6484199    -1.6754723    -0.6193972
H           0.8259731    -2.6543399    -1.0830880
H          -0.0796088    -1.1236986    -1.2218063
H           0.2491075    -1.8352131     0.3829187
20
241_C8H9NO2_0-2-10-11 (-90,) energy =    -515.4732535
N           1.9236077    -1.1138309    -0.6771248
H           2.4680079    -1.0124449    -1.5224318
C           2.5191297    -0.7675983     0.4985948
C           6.3039413     1.2579982     0.2617614
H           7.2498836     1.7903983     0.2097047
C           5.1182421     1.9820760     0.3719267
H           5.1174820     3.0659830     0.4300407
C           3.8987692     1.3057817     0.4577168
O           2.7627689     2.0435855     0.6370120
H           2.0901657     1.4739472     1.0509634
C           3.8620979    -0.0964732     0.3461806
C           5.0647815    -0.8093402     0.3107860
H           5.0368998    -1.8961917     0.3000424
C           6.2867228    -0.1392132     0.2524133
H           7.2147803    -0.7009838     0.2053775
O           1.9536679    -0.8505306     1.5890272
C           0.6154413    -1.7427697    -0.7493186
H           0.6884861    -2.7947655    -1.0512745
H          -0.0258016    -1.2132996    -1.4621533
H           0.1719359    -1.6896088     0.2457998
20
241_C8H9NO2_0-2-10-11 (-75,) energy =    -515.4779177
N           1.9581668    -1.2107890    -0.6893194
H           2.5705780    -1.2697864    -1.4911391
C           2.4628035    -0.6535613     0.4444344
C           6.3066583     1.2458726     0.2725369
H           7.2690257     1.7497321     0.2395658
C           5.1500273     2.0003798     0.4588877
H           5.1888163     3.0761577     0.5981530
C           3.9080987     1.3627831     0.5301197
O           2.8082849     2.1114602     0.8121786
H           2.1339014     1.5089830     1.1858834
C           3.8207660    -0.0267052     0.2988483
C           4.9989039    -0.7759405     0.2013273
H           4.9342529    -1.8585477     0.1186577
C           6.2428636    -0.1464646     0.1693566
H           7.1505670    -0.7345552     0.0734989
O           1.7928168    -0.5027883     1.4720784
C           0.6465101    -1.8332991    -0.7539708
H           0.7200124    -2.9233982    -0.8507823
H           0.0790194    -1.4391517    -1.6036278
H           0.1244234    -1.5921957     0.1727458
20
241_C8H9NO2_0-2-10-11 (-60,) energy =    -515.4830893
N           1.9932694    -1.2717357    -0.6656860
H           2.6590425    -1.4340140    -1.4083003
C           2.4118394    -0.5458406     0.4059060
C           6.3153179     1.2254055     0.2756725
H           7.2963904     1.6924317     0.2499324
C           5.1949268     2.0083142     0.5399478
H           5.2806728     3.0708684     0.7441620
C           3.9273710     1.4180932     0.6071243
O           2.8729197     2.1886510     0.9652321
H           2.1605452     1.5785627     1.2594493
C           3.7802724     0.0478568     0.2894344
C           4.9286334    -0.7350197     0.1079179
H           4.8201492    -1.8079130    -0.0363674
C           6.1947200    -0.1547414     0.0838986
H           7.0760278    -0.7694694    -0.0714706
O           1.6585500    -0.2535951     1.3458401
C           0.6922675    -1.9156018    -0.7308613
H           0.7767284    -3.0071150    -0.6622642
H           0.1858740    -1.6572130    -1.6668753
H           0.1034175    -1.5496501     0.1109630
20
241_C8H9NO2_0-2-10-11 (-45,) energy =    -515.4875292
N           2.0490722    -1.3509494    -0.6279769
H           2.7512774    -1.5792868    -1.3167814
C           2.3878514    -0.4760705     0.3569226
C           6.3321804     1.2052256     0.2932127
H           7.3245574     1.6482948     0.2788681
C           5.2380162     1.9973038     0.6227574
H           5.3532098     3.0444946     0.8838393
C           3.9532060     1.4387369     0.6755177
O           2.9316282     2.2197651     1.0842010
H           2.1772142     1.6149700     1.2845809
C           3.7665387     0.0885256     0.2901658
C           4.8941925    -0.7057363     0.0291667
H           4.7606342    -1.7671810    -0.1685916
C           6.1728148    -0.1579775     0.0168302
H           7.0351403    -0.7832877    -0.1929505
O           1.5610681    -0.0731012     1.1924518
C           0.7469128    -1.9893836    -0.7109150
H           0.8207111    -3.0726082    -0.5562890
H           0.2872351    -1.8012346    -1.6874086
H           0.1197426    -1.5579570     0.0698295
20
241_C8H9NO2_0-2-10-11 (-30,) energy =    -515.4904135
N           2.0735798    -1.4213770    -0.5713523
H           2.7964219    -1.7093429    -1.2136152
C           2.3556231    -0.4164829     0.3012221
C           6.3308047     1.2010298     0.3145909
H           7.3300275     1.6287023     0.3134763
C           5.2535224     1.9871266     0.7001923
H           5.3850926     3.0180643     1.0129550
C           3.9570069     1.4488361     0.7314317
O           2.9574342     2.2329324     1.1740814
H           2.1650223     1.6455584     1.2765668
C           3.7450333     0.1168211     0.2915804
C           4.8609913    -0.6693092    -0.0453454
H           4.7191688    -1.7183574    -0.2951116
C           6.1456040    -0.1410482    -0.0437265
H           6.9947579    -0.7647378    -0.3053797
O           1.4722404     0.0823553     1.0234976
C           0.7584841    -2.0281885    -0.6827053
H           0.7842784    -3.0884147    -0.4038100
H           0.3769158    -1.9403739    -1.7061112
H           0.0909895    -1.4958724    -0.0046579
20
241_C8H9NO2_0-2-10-11 (-15,) energy =    -515.4916545
N           2.0783815    -1.5398815    -0.4707789
H           2.8120325    -1.8847415    -1.0706555
C           2.2987871    -0.3907589     0.2241849
C           6.2771732     1.2173464     0.4026631
H           7.2763850     1.6434463     0.4397937
C           5.1900064     1.9944127     0.7722093
H           5.3102533     3.0204122     1.1050478
C           3.8898299     1.4605095     0.7457123
O           2.8820216     2.2497197     1.1507133
H           2.0641269     1.6831337     1.1456239
C           3.6898367     0.1285056     0.2943299
C           4.8177778    -0.6421762    -0.0458701
H           4.6927949    -1.6857418    -0.3239678
C           6.1001726    -0.1147893     0.0015839
H           6.9550395    -0.7306619    -0.2598508
O           1.3495353     0.2055009     0.7708228
C           0.7401511    -2.0806869    -0.6472259
H           0.8061836    -3.1592048    -0.8145399
H           0.2164364    -1.6177058    -1.4938030
H           0.1630747    -1.8876976     0.2577766
20
241_C8H9NO2_0-2-10-11 (0,) energy =    -515.4915175
N           1.8923843    -1.5907821    -0.6343110
H           2.6973340    -2.1623102    -0.8352366
C           2.0664098    -0.3917089    -0.0180325
C           6.0171440     1.2195221     0.5300880
H           7.0087804     1.6375342     0.6825631
C           4.9071136     1.9078163     0.9914578
H           4.9990743     2.8596924     1.5046134
C           3.6135740     1.3874882     0.8050349
O           2.5848086     2.1081077     1.2748121
H           1.7597079     1.5949907     1.0501502
C           3.4460571     0.1422330     0.1383576
C           4.5978151    -0.5277219    -0.3191909
H           4.5074275    -1.4718691    -0.8504647
C           5.8696523    -0.0075005    -0.1332959
H           6.7385214    -0.5448087    -0.5003408
O           1.0713006     0.2468620     0.3836041
C           0.5764882    -2.1941242    -0.7719910
H           0.2754359    -2.7388548     0.1323243
H           0.5869237    -2.8858906    -1.6184640
H          -0.1549577    -1.4059161    -0.9549608
20
241_C8H9NO2_0-2-10-11 (15,) energy =    -515.4916538
N           1.8933103    -1.6275263    -0.5680313
H           2.6973646    -2.2360794    -0.5574426
C           2.0410247    -0.3528480    -0.1152026
C           5.9925342     1.1813860     0.5728831
H           6.9866856     1.5748148     0.7683641
C           4.8858738     1.8410084     1.0853354
H           4.9847720     2.7472135     1.6743561
C           3.5893366     1.3593143     0.8342153
O           2.5557823     2.0617763     1.3249066
H           1.7318827     1.6244474     0.9786870
C           3.4202044     0.1634352     0.0865217
C           4.5629694    -0.4651232    -0.4434526
H           4.4495041    -1.3398967    -1.0789620
C           5.8387593     0.0268978    -0.2083806
H           6.7045410    -0.4718349    -0.6328374
O           1.0377164     0.3458504     0.1311028
C           0.5799193    -2.2317108    -0.7252608
H           0.1849729    -2.6143031     0.2249566
H           0.6472571    -3.0545699    -1.4418426
H          -0.1117383    -1.4771716    -1.1020669
20
241_C8H9NO2_0-2-10-11 (30,) energy =    -515.4904130
N           1.8220422    -1.7434118    -0.3748536
H           2.6475371    -2.3179705    -0.2950683
C           1.9489292    -0.4058568    -0.1613151
C           5.8694555     1.1621472     0.6069326
H           6.8559795     1.5660082     0.8191226
C           4.7471739     1.8023560     1.1146653
H           4.8288483     2.7057707     1.7105970
C           3.4619243     1.3114298     0.8339517
O           2.4056203     2.0047433     1.2958996
H           1.6023381     1.6066003     0.8720560
C           3.3215926     0.1110162     0.0909829
C           4.4729373    -0.4866061    -0.4513216
H           4.3696206    -1.3543808    -1.0988609
C           5.7403549     0.0216196    -0.1970373
H           6.6171611    -0.4531398    -0.6263582
O           0.9529119     0.3397951    -0.1079412
C           0.5439880    -2.3884737    -0.6208821
H           0.3586656    -3.1749502     0.1191956
H           0.5071212    -2.8299367    -1.6240407
H          -0.2316568    -1.6269672    -0.5363391
20
241_C8H9NO2_0-2-10-11 (45,) energy =    -515.4875293
N           1.8090821    -1.7459758    -0.2830421
H           2.6235513    -2.3214267    -0.1243742
C           1.9698011    -0.3957830    -0.2463303
C           5.8747032     1.1481990     0.6234114
H           6.8570271     1.5505120     0.8568838
C           4.7462176     1.7467235     1.1724938
H           4.8215342     2.6181406     1.8151436
C           3.4682713     1.2615927     0.8610454
O           2.3964958     1.9239275     1.3440697
H           1.6124580     1.5961893     0.8411466
C           3.3426288     0.0953815     0.0669610
C           4.4914617    -0.4472534    -0.5299473
H           4.3863123    -1.2814863    -1.2203133
C           5.7558418     0.0612865    -0.2509919
H           6.6360515    -0.3727393    -0.7151952
O           1.0076686     0.3845054    -0.3437811
C           0.5382557    -2.3877575    -0.5715189
H           0.2687849    -3.0853649     0.2290650
H           0.5712079    -2.9339840    -1.5219467
H          -0.2178906    -1.6046151    -0.6345342
20
241_C8H9NO2_0-2-10-11 (60,) energy =    -515.4830871
N           1.7624239    -1.7348963    -0.2013451
H           2.5524270    -2.3131197     0.0488639
C           1.9807365    -0.3996666    -0.3425584
C           5.8539327     1.1536000     0.6458368
H           6.8262937     1.5629858     0.9069906
C           4.7098235     1.6891155     1.2308883
H           4.7641822     2.5221072     1.9246061
C           3.4473873     1.1944307     0.8828545
O           2.3506792     1.8037287     1.3926350
H           1.5915460     1.5489035     0.8225144
C           3.3514994     0.0733249     0.0260718
C           4.5077410    -0.3946707    -0.6132240
H           4.4200516    -1.1912230    -1.3490889
C           5.7606182     0.1268157    -0.2992181
H           6.6508704    -0.2533798    -0.7907760
O           1.0688386     0.3994880    -0.5997420
C           0.4909020    -2.3695481    -0.5043213
H           0.1586024    -2.9816622     0.3409332
H           0.5581469    -3.0032988    -1.3970102
H          -0.2361589    -1.5765765    -0.6828612
20
241_C8H9NO2_0-2-10-11 (75,) energy =    -515.4779167
N           1.7284217    -1.7111402    -0.1333883
H           2.4767568    -2.2807421     0.2367746
C           2.0232617    -0.4223779    -0.4540440
C           5.8515520     1.1586841     0.6682925
H           6.8088683     1.5795377     0.9642810
C           4.6872270     1.6155642     1.2825083
H           4.7099635     2.4010544     2.0312690
C           3.4472533     1.1016895     0.8918703
O           2.3214944     1.6367629     1.4360261
H           1.5845663     1.4556722     0.8181935
C           3.3907344     0.0424365    -0.0391969
C           4.5598604    -0.3399628    -0.7070210
H           4.5029295    -1.0895107    -1.4932144
C           5.7941487     0.1995327    -0.3465809
H           6.6985915    -0.1176738    -0.8567114
O           1.1789947     0.3702835    -0.8861165
C           0.4460094    -2.3300923    -0.4242606
H           0.0414722    -2.8094846     0.4734687
H           0.5299446    -3.0799548    -1.2203152
H          -0.2319908    -1.5398202    -0.7487101
20
241_C8H9NO2_0-2-10-11 (90,) energy =    -515.4732534
N           1.6966654    -1.6552040    -0.0622535
H           2.3881745    -2.1650743     0.4697815
C           2.0669115    -0.4524801    -0.5847815
C           5.8454137     1.1623588     0.6809934
H           6.7888466     1.5875943     1.0128010
C           4.6651165     1.5335672     1.3224214
H           4.6619019     2.2563075     2.1322763
C           3.4458617     1.0056669     0.8904576
O           2.3015479     1.4456886     1.4938011
H           1.5603202     1.3149881     0.8759247
C           3.4199567     0.0374421    -0.1304326
C           4.6030738    -0.2668450    -0.8112578
H           4.5699146    -0.9590412    -1.6490669
C           5.8195265     0.2787663    -0.4011611
H           6.7359355     0.0213347    -0.9236478
O           1.3089487     0.2546180    -1.2490472
C           0.4193569    -2.2860862    -0.3494481
H          -0.0831353    -2.5769300     0.5794118
H           0.5408962    -3.1750159    -0.9803707
H          -0.1936617    -1.5557927    -0.8792056
20
241_C8H9NO2_0-2-10-11 (105,) energy =    -515.4724697
N           1.5561201    -1.3914047     0.0365597
H           2.1658470    -1.7741670     0.7469225
C           2.0711227    -0.3983052    -0.7643783
C           5.8275093     1.1590155     0.6530468
H           6.7734352     1.5566906     1.0108206
C           4.6504705     1.5009346     1.3125138
H           4.6544578     2.1533240     2.1800251
C           3.4271719     0.9901857     0.8651042
O           2.3107644     1.3384930     1.5730118
H           1.5418856     0.8637486     1.2162311
C           3.3840142     0.1599095    -0.2683355
C           4.5801093    -0.1881407    -0.9073013
H           4.5394136    -0.8385524    -1.7770455
C           5.8010469     0.3069305    -0.4553430
H           6.7214727     0.0345782    -0.9628034
O           1.5133753    -0.0084982    -1.7811191
C           0.3654375    -2.1416735    -0.3343324
H          -0.2318961    -2.3664281     0.5545014
H           0.6175566    -3.0818175    -0.8415340
H          -0.2159333    -1.5242432    -1.0202066
20
241_C8H9NO2_0-2-10-11 (120,) energy =    -515.4755467
N           1.4758839    -1.2710451     0.0724728
H           2.0305866    -1.6146711     0.8471367
C           2.1373200    -0.4811502    -0.8526073
C           5.8110763     1.1852721     0.6336950
H           6.7411702     1.6037091     1.0090314
C           4.6199902     1.4722263     1.2933230
H           4.5977254     2.1014145     2.1775379
C           3.4159097     0.9300531     0.8290339
O           2.2867954     1.2172643     1.5412586
H           1.5450975     0.7005382     1.1779665
C           3.4071446     0.1365356    -0.3344829
C           4.6197112    -0.1579079    -0.9715142
H           4.5994647    -0.7822315    -1.8604038
C           5.8206110     0.3606526    -0.4964365
H           6.7535297     0.1287095    -1.0010589
O           1.7214434    -0.3238950    -1.9909737
C           0.3224351    -2.0669036    -0.3307492
H          -0.2470935    -2.3545700     0.5567235
H           0.6169853    -2.9703387    -0.8801476
H          -0.3044896    -1.4613536    -0.9865729
20
241_C8H9NO2_0-2-10-11 (135,) energy =    -515.4785724
N           1.3991965    -1.2299845     0.1747538
H           1.8960318    -1.5509380     0.9986623
C           2.1841422    -0.6066570    -0.7911576
C           5.7898605     1.2127233     0.6699733
H           6.7074598     1.6663839     1.0351664
C           4.6046212     1.4183516     1.3679592
H           4.5731260     2.0246320     2.2677279
C           3.4149329     0.8313746     0.9192360
O           2.2943287     1.0593748     1.6627024
H           1.5452235     0.5851950     1.2537334
C           3.4174955     0.0598412    -0.2618193
C           4.6245626    -0.1334633    -0.9494426
H           4.6044376    -0.7263431    -1.8591079
C           5.8093038     0.4310856    -0.4910849
H           6.7373646     0.2696313    -1.0308201
O           1.8791817    -0.6207410    -1.9744600
C           0.2639698    -2.0437603    -0.2515684
H          -0.3372698    -2.3015646     0.6237408
H           0.5818066    -2.9628114    -0.7598055
H          -0.3417035    -1.4648062    -0.9502018
20
241_C8H9NO2_0-2-10-11 (150,) energy =    -515.4801749
N           1.3449003    -1.1724496     0.1933109
H           1.7679997    -1.4827985     1.0629408
C           2.2562718    -0.7147890    -0.7639539
C           5.7935973     1.2591915     0.6621151
H           6.6971592     1.7508939     1.0128993
C           4.6207579     1.3848713     1.3974276
H           4.5821731     1.9734436     2.3085575
C           3.4470524     0.7528908     0.9662069
O           2.3358503     0.9343301     1.7350462
H           1.5709669     0.5326873     1.2768223
C           3.4589933    -0.0109614    -0.2219882
C           4.6501004    -0.0991917    -0.9608004
H           4.6275751    -0.6669240    -1.8858426
C           5.8155735     0.5176300    -0.5256800
H           6.7310142     0.4285836    -1.1024901
O           2.0536945    -0.8709265    -1.9591417
C           0.2124884    -1.9762630    -0.2651281
H          -0.4586571    -2.1521592     0.5790644
H           0.5297480    -2.9372090    -0.6884804
H          -0.3197531    -1.4257346    -1.0420925
20
241_C8H9NO2_0-2-10-11 (165,) energy =    -515.4802589
N           1.3355489    -1.3479235     0.0588829
H           1.3041880    -0.8826147     0.9545326
C           2.3503085    -1.0508563    -0.7981538
C           5.7946471     1.2304768     0.4918867
H           6.6726076     1.7941407     0.7953439
C           4.6593748     1.2430178     1.2981577
H           4.6499597     1.8156806     2.2245212
C           3.5209211     0.5210774     0.9269277
O           2.4016237     0.5354486     1.7292994
H           2.5810559     1.0769304     2.5134161
C           3.4987515    -0.2204849    -0.2700425
C           4.6565881    -0.2117719    -1.0611254
H           4.6186250    -0.7824538    -1.9828542
C           5.7963047     0.4973892    -0.6959027
H           6.6770199     0.4802695    -1.3306898
O           2.3713623    -1.4842496    -1.9501630
C           0.1918591    -2.1193900    -0.3931513
H          -0.3829293    -2.4434210     0.4783193
H           0.5349806    -2.9960498    -0.9479293
H          -0.4620714    -1.5377161    -1.0562622
20
241_C8H9NO2_0-2-10-11 (180,) energy =    -515.4805790
N           1.2900431    -1.2615873     0.0152855
H           1.2266427    -0.7335459     0.8731746
C           2.4075333    -1.1487888    -0.7516531
C           5.7847008     1.2775787     0.4546226
H           6.6445952     1.8800689     0.7342571
C           4.6819902     1.2218087     1.3027103
H           4.6807132     1.7773889     2.2395074
C           3.5651261     0.4525529     0.9616695
O           2.4796386     0.4053073     1.8076668
H           2.6549841     0.9635377     2.5808205
C           3.5354784    -0.2783216    -0.2423004
C           4.6614453    -0.2000516    -1.0750800
H           4.6196546    -0.7688021    -1.9977624
C           5.7768129     0.5619475    -0.7437772
H           6.6313341     0.5989474    -1.4126251
O           2.5120012    -1.7368046    -1.8286801
C           0.1658307    -2.0646958    -0.4291986
H          -0.4913541    -2.2572439     0.4228816
H           0.5256202    -3.0141901    -0.8335298
H          -0.4107825    -1.5620279    -1.2166554
