27
130_C14H10N2O_8-7-22-23 (-165,) energy =    -724.2190090
C           5.7706960     1.0409854    -0.1259718
H           6.6146908     1.5487620    -0.5850771
C           5.9819116     0.0364626     0.8189840
H           6.9884351    -0.2452012     1.1151021
C           4.8853604    -0.6306146     1.3549729
H           5.0258549    -1.4519244     2.0504580
C           3.5744026    -0.2925031     0.9833402
C           3.3483722     0.7979012     0.1053375
C           4.4749898     1.4071050    -0.4751371
H           4.3021286     2.2071092    -1.1847926
C           1.2694051    -2.5001833     2.6126155
H           0.8676324    -2.9981867     3.4836111
N           2.3145412    -1.5910667     2.7099730
C           2.5237048    -1.1940275     1.4868047
O           1.6979746    -1.7902926     0.5731413
C           0.8961223    -2.6151020     1.3138274
H           0.1576235    -3.1849725     0.7729340
C          -0.3965946     2.3961458    -1.1469905
H          -1.3150822     2.8302173    -1.5300003
C           0.8242590     2.6379979    -1.7774085
H           0.8717486     3.2706512    -2.6629278
N           1.9849172     2.1297126    -1.3639261
C           2.0046744     1.3399077    -0.2710043
C           0.8215387     1.0567346     0.4340146
H           0.8398918     0.4745272     1.3462816
C          -0.3841754     1.5934410    -0.0088373
H          -1.3012568     1.3880501     0.5368510
27
130_C14H10N2O_8-7-22-23 (-150,) energy =    -724.2216796
C           5.7701791     1.0991622    -0.0565726
H           6.6151211     1.6403256    -0.4737540
C           5.9769674     0.0770234     0.8715361
H           6.9815334    -0.1854521     1.1910902
C           4.8846314    -0.6295675     1.3631324
H           5.0254000    -1.4603621     2.0468769
C           3.5762462    -0.3147672     0.9607835
C           3.3538978     0.7793953     0.0890782
C           4.4763436     1.4378936    -0.4399112
H           4.3026862     2.2461637    -1.1411409
C           1.2975190    -2.6008131     2.5081141
H           0.9408495    -3.1796728     3.3482266
N           2.3897387    -1.7525376     2.6181449
C           2.5223150    -1.2257666     1.4323626
O           1.5975042    -1.6769627     0.5326850
C           0.8169023    -2.5491651     1.2406551
H           0.0096876    -3.0206452     0.7033671
C          -0.4046929     2.3410678    -1.1297809
H          -1.3330479     2.7636917    -1.5018329
C           0.7622017     2.4079059    -1.8909793
H           0.7559937     2.8879420    -2.8687106
N           1.9350398     1.9062444    -1.4977301
C           2.0083280     1.2983282    -0.2981412
C           0.8866156     1.2010585     0.5432517
H           0.9718740     0.7545250     1.5275336
C          -0.3290989     1.7292894     0.1205408
H          -1.2027530     1.6695985     0.7641634
27
130_C14H10N2O_8-7-22-23 (-135,) energy =    -724.2226987
C           5.7673930     1.1683303     0.0274910
H           6.6073602     1.7504055    -0.3417667
C           5.9764213     0.1207081     0.9269744
H           6.9789928    -0.1222758     1.2675910
C           4.8935689    -0.6313993     1.3680136
H           5.0388984    -1.4739467     2.0359299
C           3.5869362    -0.3408919     0.9392728
C           3.3629722     0.7591002     0.0777609
C           4.4754799     1.4772350    -0.3874598
H           4.2985403     2.3004276    -1.0713755
C           1.3520967    -2.7121156     2.4123283
H           1.0459224    -3.3716341     3.2119491
N           2.4849964    -1.9205868     2.5145686
C           2.5367826    -1.2649961     1.3868619
O           1.5157982    -1.5762774     0.5345370
C           0.7633397    -2.4983558     1.2088071
H          -0.1091064    -2.8753319     0.6997037
C          -0.3928283     2.3138996    -1.1308772
H          -1.3236344     2.7351475    -1.4985545
C           0.7129912     2.1952112    -1.9721403
H           0.6552246     2.5261470    -3.0082021
N           1.8887397     1.6877168    -1.5889610
C           2.0134574     1.2564817    -0.3208443
C           0.9609653     1.3572696     0.6041943
H           1.1042369     1.0403675     1.6321211
C          -0.2554776     1.8903493     0.1909932
H          -1.0801343     1.9821052     0.8929246
27
130_C14H10N2O_8-7-22-23 (-120,) energy =    -724.2221573
C           5.7577425     1.2314163     0.1107964
H           6.5900116     1.8520633    -0.2097290
C           5.9732314     0.1472633     0.9646583
H           6.9744075    -0.0868973     1.3154649
C           4.9012364    -0.6473488     1.3525226
H           5.0521004    -1.5098467     1.9929452
C           3.5955205    -0.3677891     0.9108549
C           3.3675150     0.7504756     0.0765560
C           4.4673871     1.5239799    -0.3218241
H           4.2870141     2.3719852    -0.9748662
C           1.3959687    -2.8258230     2.2861572
H           1.1322950    -3.5665669     3.0277143
N           2.5674866    -2.0930780     2.3731661
C           2.5498596    -1.3080577     1.3291629
O           1.4425263    -1.4762181     0.5487881
C           0.7121319    -2.4473103     1.1769285
H          -0.2190654    -2.7279419     0.7116933
C          -0.3843175     2.2890927    -1.1536147
H          -1.3160954     2.7023886    -1.5280037
C           0.6518530     1.9709353    -2.0305695
H           0.5379931     2.1361381    -3.1010679
N           1.8275737     1.4630588    -1.6427874
C           2.0124333     1.2308554    -0.3323091
C           1.0375921     1.5436015     0.6284154
H           1.2390767     1.3749407     1.6818006
C          -0.1777094     2.0750847     0.2095025
H          -0.9466141     2.3272812     0.9350961
27
130_C14H10N2O_8-7-22-23 (-105,) energy =    -724.2208860
C           5.7377475     1.2809885     0.2169370
H           6.5625328     1.9343130    -0.0540995
C           5.9634523     0.1428303     0.9943454
H           6.9658889    -0.1013577     1.3346303
C           4.9006986    -0.6882315     1.3247837
H           5.0586936    -1.5849434     1.9142389
C           3.5921846    -0.3969527     0.8963922
C           3.3569178     0.7632280     0.1255212
C           4.4454964     1.5813684    -0.2060497
H           4.2606437     2.4686445    -0.8043108
C           1.4290597    -2.9562468     2.1346508
H           1.2091431    -3.7900233     2.7862577
N           2.6413148    -2.2915596     2.1862145
C           2.5519938    -1.3580292     1.2758207
O           1.3555617    -1.3621718     0.6199572
C           0.6470353    -2.3884974     1.1819799
H          -0.3446568    -2.5589191     0.7950596
C          -0.4076061     2.2291956    -1.1580769
H          -1.3468305     2.6098278    -1.5483654
C           0.5519866     1.6973497    -2.0185973
H           0.3695775     1.6611597    -3.0917676
N           1.7328523     1.2143329    -1.6130663
C           1.9968907     1.2305901    -0.2969112
C           1.1049409     1.7660322     0.6439671
H           1.3724417     1.7823342     1.6962199
C          -0.1167719     2.2681285     0.2056883
H          -0.8255241     2.6888387     0.9142568
27
130_C14H10N2O_8-7-22-23 (-90,) energy =    -724.2201920
C           5.7074144     1.3308976     0.3411633
H           6.5284848     2.0088675     0.1249654
C           5.9392898     0.1287224     1.0124208
H           6.9436183    -0.1410174     1.3268762
C           4.8798829    -0.7295066     1.2768609
H           5.0415767    -1.6693854     1.7933506
C           3.5679328    -0.4082162     0.8807843
C           3.3286134     0.8097199     0.2062682
C           4.4122763     1.6590219    -0.0529734
H           4.2255243     2.5917016    -0.5777933
C           1.4398780    -3.0832883     1.9162314
H           1.2650275    -4.0277765     2.4117315
N           2.6938117    -2.5021097     1.8788279
C           2.5311607    -1.3912335     1.2085707
O           1.2446673    -1.1977868     0.7995505
C           0.5582305    -2.2880686     1.2591582
H          -0.4950468    -2.3255262     1.0326393
C          -0.4452875     2.1588560    -1.1798433
H          -1.3937054     2.4878144    -1.5942882
C           0.4388364     1.4032077    -1.9499972
H           0.1862757     1.1382194    -2.9758398
N           1.6243823     0.9642176    -1.5108678
C           1.9735268     1.2670542    -0.2508852
C           1.1592841     2.0300695     0.5969320
H           1.4902465     2.2572336     1.6058281
C          -0.0704475     2.4810982     0.1239583
H          -0.7222843     3.0740293     0.7603542
27
130_C14H10N2O_8-7-22-23 (-75,) energy =    -724.2207934
C           5.7031179     1.3735544     0.4825557
H           6.5184224     2.0746772     0.3268310
C           5.9459172     0.1171269     1.0396846
H           6.9527346    -0.1713978     1.3284244
C           4.8920816    -0.7683978     1.2317029
H           5.0609649    -1.7462604     1.6696232
C           3.5782723    -0.4232475     0.8678928
C           3.3292735     0.8441002     0.2949193
C           4.4051761     1.7229360     0.1143966
H           4.2134173     2.6918955    -0.3384249
C           1.4621114    -3.1965789     1.6310545
H           1.3021029    -4.2319298     1.8967213
N           2.7316865    -2.6805988     1.4446818
C           2.5423009    -1.4257813     1.1324480
O           1.2251733    -1.0729086     1.1068822
C           0.5461447    -2.2170441     1.4240326
H          -0.5293579    -2.1482101     1.4512199
C          -0.4425809     2.0677072    -1.2035254
H          -1.3967345     2.3468529    -1.6406682
C           0.3663129     1.1128122    -1.8214364
H           0.0474274     0.6397942    -2.7493317
N           1.5519069     0.7183703    -1.3451377
C           1.9849070     1.2800686    -0.2045996
C           1.2441520     2.2443634     0.4915213
H           1.6321561     2.6630458     1.4151377
C           0.0111156     2.6447958    -0.0186675
H          -0.5849825     3.3900405     0.5016261
27
130_C14H10N2O_8-7-22-23 (-60,) energy =    -724.2218156
C           5.6629162     1.4069216     0.5878535
H           6.4667020     2.1308227     0.4856701
C           5.9238586     0.1221510     1.0656103
H           6.9329804    -0.1664044     1.3460790
C           4.8825831    -0.7910025     1.1934592
H           5.0641861    -1.7886981     1.5787349
C           3.5675543    -0.4459913     0.8395197
C           3.3018816     0.8458330     0.3309758
C           4.3634799     1.7547642     0.2231402
H           4.1626611     2.7423489    -0.1831967
C           1.4675331    -3.2728050     1.4301999
H           1.3042904    -4.3339368     1.5546341
N           2.7215848    -2.7563127     1.1544872
C           2.5385861    -1.4667065     1.0615690
O           1.2450903    -1.0894652     1.2724675
C           0.5706081    -2.2569759     1.4999476
H          -0.4884975    -2.1750466     1.6841186
C          -0.4538298     2.0200920    -1.2383749
H          -1.4073848     2.2782835    -1.6892911
C           0.2648950     0.9111085    -1.6891307
H          -0.1244412     0.2953810    -2.4988989
N           1.4430384     0.5320203    -1.1860762
C           1.9649514     1.2657846    -0.1878771
C           1.3150968     2.3915502     0.3376511
H           1.7652312     2.9446995     1.1563059
C           0.0874209     2.7739168    -0.1987493
H          -0.4385624     3.6407124     0.1928871
27
130_C14H10N2O_8-7-22-23 (-45,) energy =    -724.2220972
C           5.6271226     1.4261757     0.6914461
H           6.4212090     2.1659473     0.6394735
C           5.9019270     0.1206023     1.0989933
H           6.9120976    -0.1699904     1.3733859
C           4.8698986    -0.8101134     1.1681839
H           5.0594590    -1.8230922     1.5072733
C           3.5543247    -0.4625898     0.8226705
C           3.2778197     0.8467865     0.3634444
C           4.3282722     1.7759006     0.3278686
H           4.1262690     2.7783813    -0.0386355
C           1.4708720    -3.3259943     1.2880024
H           1.2998468    -4.3930594     1.3047550
N           2.6997049    -2.7901626     0.9400908
C           2.5323797    -1.4984112     1.0155992
O           1.2786571    -1.1375150     1.4129027
C           0.6083492    -2.3182687     1.5731826
H          -0.4223689    -2.2509170     1.8822879
C          -0.4622429     2.0287560    -1.2392532
H          -1.4132557     2.2840101    -1.6969735
C           0.1573802     0.8101320    -1.5237042
H          -0.3069097     0.1043434    -2.2112121
N           1.3262168     0.4301310    -1.0028816
C           1.9421725     1.2675452    -0.1487301
C           1.3953643     2.5124653     0.1994053
H           1.9099830     3.1545549     0.9073724
C           0.1760235     2.8953821    -0.3542050
H          -0.2693890     3.8518116    -0.0932043
27
130_C14H10N2O_8-7-22-23 (-30,) energy =    -724.2208160
C           5.6020746     1.4504713     0.7925285
H           6.3872585     2.2014749     0.7933873
C           5.8883698     0.1280598     1.1304657
H           6.8983546    -0.1668628     1.4007006
C           4.8632658    -0.8131676     1.1393783
H           5.0573272    -1.8399271     1.4316711
C           3.5483821    -0.4597210     0.8007986
C           3.2640036     0.8652014     0.3879069
C           4.3053932     1.8060445     0.4285514
H           4.1099452     2.8235245     0.1047069
C           1.4773696    -3.3520473     1.1386277
H           1.2900258    -4.4126206     1.0475025
N           2.6702536    -2.7832509     0.7197294
C           2.5333676    -1.5104743     0.9651066
O           1.3413645    -1.1938812     1.5474841
C           0.6716615    -2.3824002     1.6390327
H          -0.3149881    -2.3493400     2.0726829
C          -0.4773961     2.0319102    -1.2362979
H          -1.4287370     2.2764253    -1.6989952
C           0.0572337     0.7468998    -1.3452260
H          -0.4733763    -0.0248750    -1.9011968
N           1.2222609     0.3794637    -0.8097090
C           1.9232028     1.2890516    -0.1069263
C           1.4655378     2.6084161     0.0495310
H           2.0345370     3.3220250     0.6360652
C           0.2498645     2.9792743    -0.5186890
H          -0.1236421     3.9927247    -0.3980033
27
130_C14H10N2O_8-7-22-23 (-15,) energy =    -724.2179900
C           5.5822752     1.4690124     0.8926198
H           6.3610932     2.2247948     0.9453342
C           5.8726839     0.1339234     1.1691661
H           6.8803126    -0.1694563     1.4386117
C           4.8491353    -0.8078079     1.1212500
H           5.0429787    -1.8461131     1.3701730
C           3.5371737    -0.4437122     0.7846974
C           3.2521511     0.8952089     0.4134458
C           4.2902771     1.8357714     0.5251974
H           4.1077989     2.8687761     0.2502592
C           1.4690681    -3.3542687     0.9731078
H           1.2541714    -4.3933007     0.7668244
N           2.6164135    -2.7376752     0.4944500
C           2.5275303    -1.5087772     0.9151896
O           1.4220191    -1.2695158     1.6775683
C           0.7459132    -2.4582049     1.6892457
H          -0.1800566    -2.4824807     2.2413054
C          -0.5060650     2.0253571    -1.2203113
H          -1.4643101     2.2502454    -1.6784979
C          -0.0495953     0.7098051    -1.1312581
H          -0.6469961    -0.1103133    -1.5270894
N           1.1192285     0.3668596    -0.5899994
C           1.9083683     1.3269058    -0.0722709
C           1.5335312     2.6815483    -0.1354828
H           2.1622572     3.4547879     0.2909989
C           0.3130557     3.0286375    -0.7068820
H           0.0087705     4.0710862    -0.7491329
27
130_C14H10N2O_8-7-22-23 (0,) energy =    -724.2150981
C           5.5568589     1.4926283     1.0040252
H           6.3303636     2.2507716     1.0907417
C           5.8437008     0.1557343     1.2718186
H           6.8442760    -0.1505326     1.5631863
C           4.8214501    -0.7844622     1.1821775
H           5.0148151    -1.8273187     1.4129211
C           3.5183788    -0.4195453     0.8161294
C           3.2345651     0.9258204     0.4646424
C           4.2745213     1.8617530     0.6089177
H           4.0982618     2.9055165     0.3771174
C           1.4474439    -3.3387636     0.7213523
H           1.1847070    -4.3181712     0.3469319
N           2.5254128    -2.6269592     0.2096823
C           2.5202019    -1.5089803     0.8737216
O           1.5494049    -1.4391157     1.8291892
C           0.8578093    -2.6126498     1.7023555
H           0.0266030    -2.7589372     2.3736551
C          -0.5549945     2.0130546    -1.1521988
H          -1.5324622     2.2216301    -1.5760304
C          -0.1971434     0.7161497    -0.7859493
H          -0.8917279    -0.1108324    -0.9255091
N           0.9867118     0.3963600    -0.2640017
C           1.9018909     1.3593532    -0.0560811
C           1.6297638     2.6929013    -0.4184743
H           2.3607258     3.4789207    -0.2737584
C           0.3909581     3.0181855    -0.9613301
H           0.1725174     4.0465954    -1.2365257
27
130_C14H10N2O_8-7-22-23 (15,) energy =    -724.2156345
C           5.5565281     1.5146012     1.0716494
H           6.3462212     2.2603515     1.1009981
C           5.7739748     0.2364947     1.5827051
H           6.7340374    -0.0314630     2.0144232
C           4.7474208    -0.7029702     1.5200606
H           4.9122048    -1.7123552     1.8856652
C           3.5022241    -0.3854459     0.9640882
C           3.2561988     0.9247888     0.4877940
C           4.3177088     1.8446154     0.5286110
H           4.1610982     2.8593565     0.1790768
C           1.3229796    -3.1407573     0.2532399
H           0.8922041    -3.8806027    -0.4068702
N           2.2424030    -2.2045402    -0.2021499
C           2.5236795    -1.4917611     0.8469680
O           1.8917798    -1.9029037     1.9829001
C           1.1111288    -2.9540208     1.5788833
H           0.5114635    -3.4302299     2.3380515
C          -0.5832277     2.0506768    -0.9447880
H          -1.5923621     2.2940254    -1.2628320
C          -0.3363265     0.9257139    -0.1575709
H          -1.1545611     0.2778630     0.1530712
N           0.8760508     0.5761608     0.2730870
C           1.9368604     1.3239880    -0.0818903
C           1.7778583     2.4818154    -0.8644510
H           2.6347151     3.0738529    -1.1649477
C           0.5067215     2.8421401    -1.3013583
H           0.3728362     3.7288059    -1.9152939
27
130_C14H10N2O_8-7-22-23 (30,) energy =    -724.2185981
C           5.4813949     1.5310280     1.1172554
H           6.2681313     2.2797543     1.1488156
C           5.6772923     0.2757511     1.6912256
H           6.6186986     0.0302412     2.1744926
C           4.6620381    -0.6746826     1.6203365
H           4.8197286    -1.6696448     2.0248351
C           3.4397267    -0.3871782     0.9952033
C           3.2061252     0.9100663     0.4791114
C           4.2606213     1.8351640     0.5184094
H           4.0982179     2.8364362     0.1317232
C           1.2111269    -3.0460878     0.1162389
H           0.6054360    -3.6039752    -0.5840633
N           1.8849472    -1.8953660    -0.2599679
C           2.4924228    -1.5001309     0.8207041
O           2.2885247    -2.3225595     1.8939170
C           1.4578307    -3.3050844     1.4246784
H           1.1596314    -4.0639116     2.1301483
C          -0.5839151     2.1804987    -0.9344609
H          -1.5826564     2.4831327    -1.2343145
C          -0.4013825     1.2352937     0.0768989
H          -1.2611562     0.7965017     0.5815471
N           0.7935637     0.8221229     0.5002431
C           1.8931484     1.3229876    -0.0928507
C           1.8066691     2.2910337    -1.1067534
H           2.7051825     2.6728192    -1.5801487
C           0.5523726     2.7177846    -1.5349458
H           0.4668406     3.4558920    -2.3280691
27
130_C14H10N2O_8-7-22-23 (45,) energy =    -724.2203933
C           5.4552814     1.5861645     1.1983308
H           6.2232233     2.3516109     1.2680289
C           5.6746442     0.3151347     1.7278072
H           6.6171244     0.0744155     2.2115017
C           4.6833263    -0.6564943     1.6176421
H           4.8600210    -1.6583546     1.9955185
C           3.4581655    -0.3752959     0.9935807
C           3.2097264     0.9281611     0.5032313
C           4.2336350     1.8810627     0.5948598
H           4.0457647     2.8861121     0.2279197
C           1.1499825    -2.9537969     0.0850878
H           0.4530027    -3.4296091    -0.5903219
N           1.7573591    -1.7490895    -0.2270376
C           2.5135438    -1.4822663     0.7989509
O           2.4633731    -2.4408841     1.7746649
C           1.5810835    -3.3738274     1.3009488
H           1.3882834    -4.2236790     1.9357920
C          -0.5589280     2.2064739    -0.9457215
H          -1.5510969     2.5196997    -1.2566439
C          -0.3872180     1.4332926     0.2044392
H          -1.2485994     1.1420606     0.8042162
N           0.7989412     1.0142184     0.6491308
C           1.8932068     1.3463912    -0.0588329
C           1.8222159     2.1266965    -1.2223363
H           2.7255606     2.3653177    -1.7749423
C           0.5766284     2.5587353    -1.6717180
H           0.4959462     3.1553346    -2.5765939
27
130_C14H10N2O_8-7-22-23 (60,) energy =    -724.2206022
C           5.4260105     1.6219936     1.3014728
H           6.1765521     2.3993198     1.4153586
C           5.6688655     0.3312214     1.7695968
H           6.6131446     0.0873848     2.2482692
C           4.6990049    -0.6545123     1.6100445
H           4.8926452    -1.6665627     1.9496839
C           3.4702579    -0.3692630     0.9927229
C           3.2069911     0.9459282     0.5456217
C           4.2035137     1.9177558     0.6989301
H           3.9969296     2.9310182     0.3653010
C           1.0840243    -2.8720853     0.0710936
H           0.3076338    -3.2785013    -0.5615880
N           1.6434892    -1.6289274    -0.1701514
C           2.5255104    -1.4690250     0.7756383
O           2.5989299    -2.5357963     1.6319933
C           1.6670357    -3.4221323     1.1656988
H           1.5581960    -4.3432136     1.7154238
C          -0.5559793     2.2053584    -0.9312842
H          -1.5457122     2.5189517    -1.2497882
C          -0.3668731     1.6300050     0.3267452
H          -1.2109829     1.4947800     1.0018699
N           0.8174216     1.2199917     0.7879053
C           1.8866362     1.3689949    -0.0121134
C           1.7996227     1.9375901    -1.2898504
H           2.6890584     2.0279583    -1.9058303
C           0.5567495     2.3610790    -1.7552300
H           0.4595108     2.7987730    -2.7453438
27
130_C14H10N2O_8-7-22-23 (75,) energy =    -724.2199358
C           5.3929371     1.6430459     1.4080057
H           6.1264244     2.4277427     1.5716194
C           5.6596367     0.3325916     1.8032900
H           6.6058176     0.0812499     2.2743155
C           4.7104545    -0.6612218     1.5861978
H           4.9191080    -1.6841316     1.8805583
C           3.4784281    -0.3665559     0.9773975
C           3.1990216     0.9632378     0.5880221
C           4.1702342     1.9461242     0.8094153
H           3.9485295     2.9696305     0.5197574
C           1.0237823    -2.8069168     0.0620482
H           0.1750047    -3.1544505    -0.5097040
N           1.5377496    -1.5320362    -0.1012928
C           2.5349354    -1.4608238     0.7355633
O           2.7232156    -2.6172549     1.4469213
C           1.7467437    -3.4652256     1.0023364
H           1.7169489    -4.4455777     1.4500946
C          -0.5431318     2.2275757    -0.9423584
H          -1.5254474     2.5514444    -1.2735439
C          -0.3268339     1.8762283     0.3906084
H          -1.1414599     1.9272660     1.1119592
N           0.8518214     1.4687645     0.8724980
C           1.8819156     1.3918762     0.0153782
C           1.7671074     1.7252700    -1.3398333
H           2.6287580     1.6395948    -1.9947639
C           0.5329141     2.1504716    -1.8249143
H           0.4127912     2.4111925    -2.8732560
27
130_C14H10N2O_8-7-22-23 (90,) energy =    -724.2193855
C           5.7043317     0.6977413    -0.6348005
H           6.5322161     1.1342576    -1.1866600
C           5.9201215    -0.3670663     0.2398942
H           6.9180605    -0.7740086     0.3770755
C           4.8507168    -0.9116679     0.9419212
H           5.0163277    -1.7381135     1.6240633
C           3.5462723    -0.4081630     0.7860582
C           3.3242942     0.6703446    -0.1009162
C           4.4156493     1.2046815    -0.7950760
H           4.2424493     2.0402407    -1.4673609
C           0.6344512    -1.6760651     2.4446774
H          -0.4302115    -1.7240887     2.6241851
N           1.1748022    -0.8193485     1.5015111
C           2.4618966    -1.0228668     1.5557244
O           2.8143929    -1.9709027     2.4822512
C           1.6331180    -2.3753404     3.0391116
H           1.6938741    -3.1294378     3.8073070
C          -0.4007160     2.5822427    -0.7544054
H          -1.3351176     3.1209517    -0.8820122
C           0.5104519     2.9710689     0.2267433
H           0.2951447     3.8211820     0.8728286
N           1.6818761     2.3601453     0.4411645
C           1.9824062     1.3041188    -0.3289765
C           1.1387187     0.8430357    -1.3474424
H           1.4297485    -0.0139947    -1.9470325
C          -0.0724143     1.4938263    -1.5621773
H          -0.7483989     1.1568682    -2.3438078
27
130_C14H10N2O_8-7-22-23 (105,) energy =    -724.2198485
C           5.7004430     0.7773410    -0.5337921
H           6.5324770     1.2487782    -1.0495162
C           5.9068521    -0.3563521     0.2529974
H           6.9017794    -0.7794832     0.3596512
C           4.8333307    -0.9426366     0.9133920
H           4.9934534    -1.8128558     1.5401950
C           3.5327073    -0.4181645     0.7959905
C           3.3181006     0.7222885    -0.0123981
C           4.4161100     1.3025692    -0.6591996
H           4.2462448     2.1838610    -1.2704904
C           0.6728055    -1.6312760     2.5815995
H          -0.3447231    -1.5576182     2.9383184
N           1.2375732    -0.6479775     1.7878368
C           2.4528070    -1.0584024     1.5519470
O           2.7347368    -2.2626802     2.1453987
C           1.5853180    -2.6110128     2.7990589
H           1.5997405    -3.5443764     3.3386162
C          -0.3859852     2.5950426    -0.8614130
H          -1.3071925     3.1343538    -1.0614751
C           0.6025903     3.1578279    -0.0564052
H           0.4623514     4.1467911     0.3778298
N           1.7648863     2.5568650     0.2284754
C           1.9734008     1.3313382    -0.2749873
C           1.0493400     0.6911356    -1.1128570
H           1.2714953    -0.2925383    -1.5148695
C          -0.1485130     1.3330425    -1.4072973
H          -0.8828209     0.8595881    -2.0538488
27
130_C14H10N2O_8-7-22-23 (120,) energy =    -724.2208486
C           5.7112705     0.8660474    -0.4462836
H           6.5500628     1.3692672    -0.9193033
C           5.9088454    -0.3130281     0.2734457
H           6.9029668    -0.7403474     0.3702821
C           4.8268344    -0.9347756     0.8860117
H           4.9801545    -1.8335516     1.4732457
C           3.5271864    -0.4056376     0.7811104
C           3.3182572     0.7721463     0.0243172
C           4.4282921     1.3942618    -0.5635372
H           4.2620626     2.3075614    -1.1257828
C           0.7268736    -1.6485990     2.6397929
H          -0.2443079    -1.5488747     3.1034364
N           1.3062985    -0.6072228     1.9352200
C           2.4532186    -1.0724132     1.5249742
O           2.6772800    -2.3676519     1.9181828
C           1.5629626    -2.7167883     2.6302519
H           1.5398683    -3.7167439     3.0328403
C          -0.3659747     2.6315391    -0.9341037
H          -1.2765609     3.1710179    -1.1772628
C           0.7023596     3.2850887    -0.3231052
H           0.6361272     4.3457899    -0.0849236
N           1.8557989     2.6873062    -0.0007607
C           1.9797023     1.3759140    -0.2612064
C           0.9676653     0.6386970    -0.8944200
H           1.1175357    -0.4132710    -1.1140329
C          -0.2202882     1.2761863    -1.2329224
H          -1.0177513     0.7266994    -1.7262741
27
130_C14H10N2O_8-7-22-23 (135,) energy =    -724.2210615
C           5.7227115     0.9261153    -0.3710547
H           6.5688445     1.4586605    -0.7965929
C           5.9145088    -0.2776542     0.3079674
H           6.9101490    -0.6978834     0.4190201
C           4.8219786    -0.9288725     0.8688291
H           4.9691178    -1.8408243     1.4372376
C           3.5193657    -0.4104543     0.7472312
C           3.3132835     0.7811186     0.0083176
C           4.4377016     1.4415013    -0.5108520
H           4.2744086     2.3710949    -1.0451374
C           0.7814189    -1.7042557     2.6653887
H          -0.1498402    -1.6060097     3.2050627
N           1.3625082    -0.6275655     2.0170588
C           2.4538459    -1.1015871     1.4845822
O           2.6405937    -2.4362528     1.7435935
C           1.5614210    -2.8018044     2.5002870
H           1.5159948    -3.8330440     2.8117752
C          -0.3677014     2.6377995    -0.9902260
H          -1.2748221     3.1764548    -1.2474217
C           0.7733589     3.3251412    -0.5802732
H           0.7690928     4.4123193    -0.5146562
N           1.9230488     2.7273745    -0.2510881
C           1.9821757     1.3850395    -0.3032309
C           0.8886445     0.6109248    -0.7218348
H           0.9741336    -0.4677275    -0.7854873
C          -0.2976199     1.2467618    -1.0695561
H          -1.1535737     0.6651681    -1.4015667
27
130_C14H10N2O_8-7-22-23 (150,) energy =    -724.2197033
C           5.7384088     0.9764330    -0.2965122
H           6.5909415     1.5350474    -0.6731764
C           5.9233614    -0.2450878     0.3510654
H           6.9194861    -0.6575191     0.4845092
C           4.8190463    -0.9199485     0.8578361
H           4.9567631    -1.8420195     1.4124581
C           3.5149051    -0.4122658     0.7096190
C           3.3137714     0.7873844    -0.0215269
C           4.4528085     1.4779102    -0.4699268
H           4.2958461     2.4175789    -0.9865210
C           0.8465334    -1.7690597     2.6835335
H          -0.0384351    -1.6829946     3.2980379
N           1.4310271    -0.6611491     2.0922453
C           2.4577991    -1.1283125     1.4397651
O           2.5992695    -2.4877289     1.5638312
C           1.5601244    -2.8775766     2.3638209
H           1.4876154    -3.9305486     2.5841597
C          -0.3571761     2.6751496    -1.0412639
H          -1.2575484     3.2228262    -1.3027629
C           0.8487320     3.3448848    -0.8382284
H           0.9038439     4.4278129    -0.9418432
N           1.9896225     2.7340441    -0.5114667
C           1.9898997     1.3952982    -0.3631738
C           0.8236672     0.6393321    -0.5623163
H           0.8430352    -0.4391066    -0.4758977
C          -0.3574770     1.2876730    -0.9073518
H          -1.2654997     0.7136002    -1.0715623
27
130_C14H10N2O_8-7-22-23 (165,) energy =    -724.2169819
C           5.7102500     1.0193592    -0.1955543
H           6.5632044     1.6003930    -0.5357444
C           5.8976672    -0.2100290     0.4345563
H           6.8950204    -0.6114616     0.5903787
C           4.7873836    -0.9058677     0.8964521
H           4.9216894    -1.8355635     1.4393316
C           3.4795558    -0.4147106     0.7228007
C           3.2755402     0.7899691    -0.0033628
C           4.4229540     1.5019325    -0.4008772
H           4.2686094     2.4433945    -0.9130607
C           0.8976693    -1.9008012     2.7233160
H           0.0601796    -1.8569145     3.4051270
N           1.4744023    -0.7523888     2.2041481
C           2.4379486    -1.1752820     1.4355007
O           2.5469084    -2.5428449     1.4154326
C           1.5534741    -2.9873055     2.2444983
H           1.4637428    -4.0552376     2.3630408
C          -0.3674691     2.7145867    -1.1116547
H          -1.2524994     3.2724660    -1.4020833
C           0.8912527     3.3150993    -1.1227195
H           1.0043295     4.3551115    -1.4266421
N           2.0128210     2.6874372    -0.7715114
C           1.9556709     1.3968885    -0.3827842
C           0.7286701     0.7141782    -0.3513904
H           0.6763502    -0.3260695    -0.0685616
C          -0.4362954     1.3792758    -0.7230331
H          -1.3870958     0.8532221    -0.7069298
27
130_C14H10N2O_8-7-22-23 (180,) energy =    -724.2157746
C           5.7497205     1.0030264    -0.1911169
H           6.5884887     1.5035805    -0.6674880
C           5.9703935    -0.0090522     0.7420257
H           6.9789080    -0.3065439     1.0148719
C           4.8748458    -0.6555167     1.3044418
H           5.0210406    -1.4705533     2.0064710
C           3.5602326    -0.2987846     0.9658902
C           3.3246838     0.7864962     0.0829703
C           4.4517414     1.3870995    -0.5091439
H           4.2769915     2.1956897    -1.2074960
C           1.2366586    -2.3580753     2.7647601
H           0.7819839    -2.7279534     3.6727930
N           2.2130798    -1.3697657     2.7891446
C           2.5174717    -1.1732460     1.5395242
O           1.8212264    -1.9783555     0.6762690
C           1.0005395    -2.7225158     1.4800980
H           0.3540563    -3.4314598     0.9878083
C          -0.3823784     2.5111263    -1.1539112
H          -1.2814134     2.9945934    -1.5235191
C           0.8797042     2.9209045    -1.5849059
H           0.9814235     3.7373140    -2.2990468
N           2.0173202     2.3655032    -1.1732403
C           1.9819829     1.3504716    -0.2838433
C           0.7502390     0.8815112     0.2062027
H           0.6951918     0.1006277     0.9491863
C          -0.4337841     1.4709571    -0.2310681
H          -1.3859488     1.1147458     0.1529484
