27
130_C14H10N2O_4-6-13-12 (-165,) energy =    -724.2208882
C           5.7275822     1.1605367    -0.1259663
H           6.5614062     1.7684529    -0.4661331
C           5.9530654    -0.0023604     0.6110392
H           6.9642636    -0.3143512     0.8567734
C           4.8737279    -0.7781238     1.0158676
H           5.0477384    -1.7028047     1.5541929
C           3.5485458    -0.4081132     0.7148112
C           3.3136525     0.8003987     0.0111838
C           4.4225876     1.5455582    -0.4176818
H           4.2333847     2.4513074    -0.9840088
C           0.7210706    -2.5214674     1.3586587
H          -0.3097240    -2.8206102     1.2319726
N           1.2356237    -1.4021835     0.7279390
C           2.4855341    -1.3458163     1.0961140
O           2.8359100    -2.3681917     1.9429255
C           1.6966762    -3.1079070     2.0960331
H           1.7639582    -3.9728141     2.7362790
C          -0.3733353     2.6765522    -0.9168463
H          -1.2849595     3.1866557    -1.2136235
C           0.6480087     2.4565263    -1.8388322
H           0.5440315     2.7947178    -2.8689152
N           1.7987484     1.8420310    -1.5415601
C           1.9722141     1.3920124    -0.2872264
C           1.0059560     1.5811161     0.7123057
H           1.1877867     1.2259515     1.7202279
C          -0.1790347     2.2330149     0.3918556
H          -0.9384675     2.3952180     1.1522078
27
130_C14H10N2O_4-6-13-12 (-150,) energy =    -724.2211435
C           5.7404233     1.1397458    -0.1564214
H           6.5783618     1.7382402    -0.5032171
C           5.9606121    -0.0238632     0.5815986
H           6.9710103    -0.3454092     0.8181068
C           4.8762945    -0.7887267     0.9961587
H           5.0420739    -1.7157426     1.5343136
C           3.5553896    -0.4021033     0.7037544
C           3.3263450     0.8040715    -0.0026267
C           4.4378575     1.5389282    -0.4414839
H           4.2535733     2.4460183    -1.0072152
C           0.7560444    -2.5746617     1.2410141
H          -0.2243968    -2.9617067     1.0021489
N           1.3166599    -1.5273653     0.5296239
C           2.4815870    -1.3295080     1.0803122
O           2.7368219    -2.1893490     2.1187275
C           1.6220680    -2.9773619     2.2043857
H           1.6208038    -3.7314137     2.9750624
C          -0.3888293     2.6559703    -0.8643581
H          -1.3100824     3.1583711    -1.1438322
C           0.6429590     2.5016736    -1.7884207
H           0.5376820     2.8854437    -2.8022678
N           1.8043106     1.8979981    -1.5129192
C           1.9816082     1.3946713    -0.2793839
C           1.0068209     1.5200926     0.7225397
H           1.1933127     1.1309419     1.7173696
C          -0.1914005     2.1584551     0.4241339
H          -0.9577239     2.2703364     1.1866331
27
130_C14H10N2O_4-6-13-12 (-135,) energy =    -724.2207037
C           5.6926723     1.2317315     0.2739826
H           6.5448906     1.8228486    -0.0500475
C           5.8538248     0.2280953     1.2304679
H           6.8312147     0.0252719     1.6591808
C           4.7557628    -0.5330359     1.6168597
H           4.8787306    -1.3419317     2.3298374
C           3.4802051    -0.2939869     1.0770456
C           3.3042655     0.7501929     0.1388306
C           4.4325758     1.4818102    -0.2615658
H           4.2940115     2.2637931    -1.0003928
C           0.8313671    -2.6643284     1.5230539
H           0.0156474    -3.2766023     1.1654033
N           1.5057410    -1.7900758     0.6857348
C           2.4061892    -1.2292040     1.4416355
O           2.3850470    -1.6834489     2.7356359
C           1.3697391    -2.6010766     2.7665734
H           1.1807819    -3.0817333     3.7130730
C          -0.3530558     2.0783902    -1.5456609
H          -1.2530247     2.4380959    -2.0352873
C           0.8369552     1.9451961    -2.2597541
H           0.8782155     2.2033867    -3.3170749
N           1.9812413     1.5101389    -1.7230958
C           1.9852697     1.1669522    -0.4227806
C           0.8407498     1.2906430     0.3807569
H           0.8835174     1.0441761     1.4360161
C          -0.3410308     1.7502019    -0.1900951
H          -1.2369668     1.8565512     0.4158121
27
130_C14H10N2O_4-6-13-12 (-120,) energy =    -724.2196533
C           5.7185433     1.2167956     0.2608105
H           6.5738892     1.8050039    -0.0603855
C           5.8799334     0.1944989     1.1976300
H           6.8600804    -0.0254590     1.6112830
C           4.7772684    -0.5614897     1.5835993
H           4.8970555    -1.3828500     2.2836387
C           3.5014401    -0.2965680     1.0616903
C           3.3269948     0.7591806     0.1388505
C           4.4571501     1.4891167    -0.2603466
H           4.3197941     2.2829092    -0.9865787
C           0.9006192    -2.7224811     1.5038680
H           0.1756701    -3.4343897     1.1352993
N           1.6722981    -1.9578429     0.6413953
C           2.4147828    -1.2258907     1.4196291
O           2.2047567    -1.4630541     2.7538611
C           1.2282856    -2.4233635     2.7854065
H           0.9059983    -2.7537240     3.7599193
C          -0.3588043     2.0580483    -1.5067628
H          -1.2672400     2.4094533    -1.9866121
C           0.8432763     2.0110794    -2.2124046
H           0.8848051     2.3302720    -3.2529162
N           1.9972136     1.5889461    -1.6877255
C           2.0026712     1.1742701    -0.4078051
C           0.8460955     1.2111341     0.3878954
H           0.8874820     0.9143424     1.4302827
C          -0.3474452     1.6554663    -0.1718368
H          -1.2526240     1.6939166     0.4283448
27
130_C14H10N2O_4-6-13-12 (-105,) energy =    -724.2184656
C           5.7352446     1.2274802     0.2472223
H           6.5865291     1.8246589    -0.0682811
C           5.9115139     0.1710557     1.1424752
H           6.8986758    -0.0667082     1.5286220
C           4.8124838    -0.5934701     1.5238417
H           4.9419121    -1.4388317     2.1934395
C           3.5293582    -0.3039520     1.0381126
C           3.3416125     0.7781053     0.1503795
C           4.4664380     1.5202323    -0.2432171
H           4.3196350     2.3350948    -0.9435875
C           0.9699555    -2.7714529     1.5281481
H           0.3318486    -3.5751368     1.1889575
N           1.8486428    -2.1272412     0.6670108
C           2.4371322    -1.2319668     1.4021339
O           2.0268547    -1.2436002     2.7109963
C           1.0817927    -2.2348315     2.7678347
H           0.6206314    -2.4089112     3.7269028
C          -0.3701974     2.0432732    -1.4672250
H          -1.2851828     2.3852972    -1.9413169
C           0.8424871     2.0792374    -2.1561804
H           0.8852467     2.4556609    -3.1773583
N           2.0036463     1.6712529    -1.6381857
C           2.0102788     1.1895032    -0.3810473
C           0.8427658     1.1423078     0.3983664
H           0.8796167     0.7988383     1.4260386
C          -0.3599608     1.5707401    -0.1561165
H          -1.2732025     1.5434600     0.4323179
27
130_C14H10N2O_4-6-13-12 (-90,) energy =    -724.2174217
C           5.7288957     1.2296215     0.2345190
H           6.5764623     1.8369274    -0.0715336
C           5.9174310     0.1335591     1.0774954
H           6.9105579    -0.1268633     1.4324991
C           4.8206754    -0.6395567     1.4484267
H           4.9591807    -1.5133030     2.0785662
C           3.5288348    -0.3207774     1.0069409
C           3.3307763     0.7917683     0.1596083
C           4.4529930     1.5449203    -0.2217709
H           4.2995617     2.3830142    -0.8925685
C           1.0535463    -2.8616166     1.5720948
H           0.5096152    -3.7519191     1.2900464
N           2.0047260    -2.2928186     0.7335841
C           2.4401145    -1.2543654     1.3800939
O           1.8600756    -1.0972506     2.6140699
C           0.9693525    -2.1344774     2.7123424
H           0.3944058    -2.1936468     3.6227299
C          -0.3767316     2.0515370    -1.4792053
H          -1.2891505     2.3903956    -1.9604559
C           0.8456432     2.1146030    -2.1493335
H           0.8987358     2.5099471    -3.1628812
N           2.0034929     1.7107485    -1.6218179
C           1.9997785     1.2068182    -0.3724095
C           0.8217695     1.1330044     0.3885876
H           0.8476994     0.7755410     1.4107857
C          -0.3784879     1.5563688    -0.1770802
H          -1.2994413     1.5081226     0.3979289
27
130_C14H10N2O_4-6-13-12 (-75,) energy =    -724.2167126
C           5.7152508     1.2356770     0.2462835
H           6.5579444     1.8542999    -0.0504082
C           5.9165638     0.1045205     1.0378214
H           6.9153300    -0.1728414     1.3628679
C           4.8243451    -0.6793535     1.3983147
H           4.9702793    -1.5788229     1.9889682
C           3.5231367    -0.3400205     0.9987704
C           3.3137381     0.8035136     0.1951644
C           4.4320641     1.5685037    -0.1753056
H           4.2707416     2.4285114    -0.8158190
C           1.1737269    -2.9730462     1.6653765
H           0.7382435    -3.9416368     1.4649537
N           2.1826513    -2.4485513     0.8666904
C           2.4512476    -1.2883414     1.3855214
O           1.7016696    -1.0055831     2.4998023
C           0.8847785    -2.0947873     2.6555623
H           0.1986861    -2.0698033     3.4871315
C          -0.3757809     2.0912918    -1.4652552
H          -1.2818284     2.4349454    -1.9551214
C           0.8486575     2.1203165    -2.1344935
H           0.9096766     2.4941787    -3.1557380
N           1.9986854     1.7082643    -1.5970652
C           1.9848584     1.2300263    -0.3368745
C           0.8056635     1.1924990     0.4238741
H           0.8250687     0.8549942     1.4520287
C          -0.3868195     1.6241027    -0.1532797
H          -1.3089588     1.6038807     0.4216320
27
130_C14H10N2O_4-6-13-12 (-60,) energy =    -724.2166444
C           5.6972915     1.2405617     0.2494077
H           6.5324735     1.8719963    -0.0413507
C           5.9122130     0.0947029     1.0155415
H           6.9150630    -0.1806221     1.3295670
C           4.8294206    -0.7051138     1.3669273
H           4.9851855    -1.6162827     1.9359309
C           3.5202943    -0.3706290     0.9839533
C           3.2973167     0.7914351     0.2093232
C           4.4075399     1.5704106    -0.1547536
H           4.2367397     2.4415102    -0.7782694
C           1.3053385    -3.0984411     1.6999528
H           0.9923620    -4.1273420     1.5930909
N           2.3973266    -2.5932972     1.0075129
C           2.4733610    -1.3445497     1.3647546
O           1.5064178    -0.9812343     2.2650539
C           0.7657639    -2.1167888     2.4621564
H          -0.0648722    -2.0397978     3.1453957
C          -0.3803055     2.1151805    -1.4485768
H          -1.2840157     2.4644273    -1.9389806
C           0.8122819     1.9890801    -2.1623427
H           0.8503792     2.2452911    -3.2202992
N           1.9584468     1.5634547    -1.6255136
C           1.9679445     1.2256481    -0.3207185
C           0.8248510     1.3490596     0.4833814
H           0.8713943     1.1147671     1.5385850
C          -0.3628337     1.7951790    -0.0931779
H          -1.2582079     1.9003535     0.5139511
27
130_C14H10N2O_4-6-13-12 (-45,) energy =    -724.2174670
C           5.6844116     1.2452041     0.2681740
H           6.5110859     1.8880399    -0.0217248
C           5.9128045     0.1036093     1.0373290
H           6.9179439    -0.1545737     1.3585699
C           4.8421606    -0.7112239     1.3869631
H           5.0065306    -1.6187796     1.9583976
C           3.5281190    -0.4013691     0.9930516
C           3.2896407     0.7652907     0.2295233
C           4.3893587     1.5579444    -0.1340980
H           4.2077914     2.4315307    -0.7520035
C           1.4139874    -3.1858942     1.7538610
H           1.2067509    -4.2463479     1.7778680
N           2.6023150    -2.6873116     1.2434380
C           2.5050839    -1.3929899     1.3692447
O           1.3240452    -0.9943868     1.9298460
C           0.6366930    -2.1552646     2.1673044
H          -0.3398564    -2.0557941     2.6132921
C          -0.3929656     2.1363945    -1.3736811
H          -1.2998378     2.4964918    -1.8503340
C           0.7265528     1.8072695    -2.1382763
H           0.7042670     1.9104576    -3.2223105
N           1.8755587     1.3613925    -1.6208165
C           1.9537022     1.2055440    -0.2856820
C           0.8876925     1.5323724     0.5650589
H           0.9962341     1.4274119     1.6371955
C          -0.3006176     2.0020443     0.0102709
H          -1.1373965     2.2664599     0.6515671
27
130_C14H10N2O_4-6-13-12 (-30,) energy =    -724.2187015
C           5.6906620     1.2385132     0.2302777
H           6.5142501     1.8824532    -0.0657574
C           5.9222249     0.1091484     1.0173404
H           6.9271835    -0.1371111     1.3484579
C           4.8570687    -0.7077116     1.3738291
H           5.0229897    -1.6056693     1.9590830
C           3.5411466    -0.4160401     0.9663018
C           3.2978933     0.7439469     0.1933091
C           4.3943001     1.5384218    -0.1766528
H           4.2080866     2.4071774    -0.8002595
C           1.5043926    -3.2177216     1.8464547
H           1.3667926    -4.2729806     2.0352331
N           2.7379448    -2.6953802     1.4985771
C           2.5318822    -1.4140539     1.3481563
O           1.2343587    -1.0524022     1.5667878
C           0.5888606    -2.2181613     1.8832842
H          -0.4658718    -2.1438917     2.0936721
C          -0.3803863     2.1771090    -1.3615092
H          -1.2867354     2.5555648    -1.8247962
C           0.6914788     1.7530135    -2.1462243
H           0.6319982     1.7969974    -3.2328301
N           1.8395651     1.2824352    -1.6459659
C           1.9598319     1.1965614    -0.3091815
C           0.9416183     1.6141392     0.5602882
H           1.0845099     1.5522961     1.6328980
C          -0.2433169     2.1107147     0.0245182
H          -1.0435437     2.4460473     0.6791655
27
130_C14H10N2O_4-6-13-12 (-15,) energy =    -724.2198131
C           5.7049177     1.2321431     0.1761661
H           6.5293451     1.8659747    -0.1386939
C           5.9316613     0.1322600     1.0058939
H           6.9347499    -0.1009307     1.3518578
C           4.8668970    -0.6747331     1.3821939
H           5.0296275    -1.5525549     1.9975870
C           3.5521210    -0.4037193     0.9533351
C           3.3112658     0.7371472     0.1500509
C           4.4098386     1.5182806    -0.2428128
H           4.2231637     2.3702693    -0.8888329
C           1.5534859    -3.1730567     2.0046777
H           1.4453241    -4.1798084     2.3826763
N           2.7958799    -2.5978385     1.8125413
C           2.5482712    -1.3969684     1.3569402
O           1.2145547    -1.1455121     1.2232423
C           0.5902342    -2.2897153     1.6423104
H          -0.4873479    -2.2900702     1.6112183
C          -0.3621848     2.2529584    -1.3334468
H          -1.2674456     2.6574848    -1.7763840
C           0.6923627     1.8282920    -2.1404200
H           0.6198544     1.8976454    -3.2249105
N           1.8388973     1.3276197    -1.6653770
C           1.9736667     1.2099558    -0.3330631
C           0.9728399     1.6245899     0.5582822
H           1.1278524     1.5354796     1.6280243
C          -0.2094123     2.1527324     0.0494449
H          -0.9958067     2.4864363     0.7214362
27
130_C14H10N2O_4-6-13-12 (0,) energy =    -724.2210135
C           5.7170313     1.2135428     0.1152923
H           6.5475870     1.8264182    -0.2240076
C           5.9325893     0.1504502     0.9951083
H           6.9327170    -0.0737789     1.3553206
C           4.8621689    -0.6361896     1.3974206
H           5.0163580    -1.4902823     2.0474250
C           3.5523850    -0.3782250     0.9464089
C           3.3200150     0.7388171     0.1073293
C           4.4252864     1.4939476    -0.3170342
H           4.2429895     2.3250616    -0.9905500
C           1.5261578    -3.0555240     2.1694157
H           1.3920625    -3.9711526     2.7277826
N           2.7441599    -2.4040257     2.1226352
C           2.5382584    -1.3491525     1.3765073
O           1.2584365    -1.2720050     0.9108897
C           0.6216934    -2.3667979     1.4291138
H          -0.4194339    -2.4841122     1.1752603
C          -0.3682084     2.3228873    -1.2610019
H          -1.2786246     2.7492968    -1.6715529
C           0.6903695     1.9730600    -2.0977764
H           0.6159543     2.1241410    -3.1738010
N           1.8425538     1.4498409    -1.6626638
C           1.9811387     1.2328591    -0.3434124
C           0.9767192     1.5700231     0.5773415
H           1.1354847     1.4077445     1.6382765
C          -0.2118853     2.1208712     0.1106663
H          -1.0004586     2.3951823     0.8065377
27
130_C14H10N2O_4-6-13-12 (15,) energy =    -724.2221581
C           5.7331277     1.1745358     0.0644645
H           6.5723773     1.7670083    -0.2894524
C           5.9352047     0.1311683     0.9707280
H           6.9328113    -0.0975254     1.3350719
C           4.8543723    -0.6335617     1.3902943
H           4.9966860    -1.4741428     2.0606972
C           3.5506040    -0.3669156     0.9314024
C           3.3316473     0.7340905     0.0684449
C           4.4454549     1.4645119    -0.3749881
H           4.2723840     2.2847218    -1.0638267
C           1.4339491    -2.9037842     2.2930041
H           1.2280062    -3.7035248     2.9902304
N           2.6130052    -2.1820332     2.3411498
C           2.5148726    -1.3082840     1.3737284
O           1.3479786    -1.4173359     0.6734914
C           0.6649100    -2.4370551     1.2771954
H          -0.3030262    -2.6782966     0.8683185
C          -0.3763991     2.3303172    -1.2289764
H          -1.2934349     2.7611242    -1.6195983
C           0.7025713     2.0738225    -2.0738003
H           0.6373910     2.3043372    -3.1362699
N           1.8622429     1.5490019    -1.6628750
C           1.9917032     1.2368410    -0.3615654
C           0.9668089     1.4789020     0.5674228
H           1.1177555     1.2491448     1.6171592
C          -0.2309542     2.0304639     0.1257989
H          -1.0348207     2.2313102     0.8291752
27
130_C14H10N2O_4-6-13-12 (30,) energy =    -724.2226997
C           5.7613492     1.1744881     0.0336791
H           6.6014569     1.7608951    -0.3283126
C           5.9677263     0.1244855     0.9310434
H           6.9689214    -0.1162296     1.2772824
C           4.8847993    -0.6322491     1.3634122
H           5.0286189    -1.4760078     2.0300294
C           3.5795750    -0.3451322     0.9272906
C           3.3580744     0.7561432     0.0668416
C           4.4708701     1.4799585    -0.3883401
H           4.2957745     2.3047301    -1.0709799
C           1.3579540    -2.7402820     2.3801540
H           1.0659791    -3.4224392     3.1659735
N           2.5003053    -1.9625968     2.4780523
C           2.5295998    -1.2707452     1.3710368
O           1.4846302    -1.5463794     0.5358716
C           0.7410071    -2.4832365     1.1994158
H          -0.1477162    -2.8358666     0.7011689
C          -0.3892125     2.3183886    -1.1558580
H          -1.3178424     2.7414061    -1.5270364
C           0.7077345     2.1631832    -2.0027104
H           0.6449410     2.4669427    -3.0467646
N           1.8809382     1.6520838    -1.6156064
C           2.0099531     1.2533798    -0.3375930
C           0.9672231     1.3920461     0.5933419
H           1.1156798     1.0989484     1.6276591
C          -0.2461190     1.9288215     0.1758941
H          -1.0637791     2.0497177     0.8815987
27
130_C14H10N2O_4-6-13-12 (45,) energy =    -724.2223801
C           5.7816643     1.1711105     0.0178487
H           6.6205783     1.7552680    -0.3505725
C           5.9967854     0.1070852     0.8960129
H           7.0024664    -0.1474995     1.2184397
C           4.9141757    -0.6450173     1.3405396
H           5.0633510    -1.4966740     1.9964812
C           3.6059293    -0.3353491     0.9360950
C           3.3775112     0.7706828     0.0848457
C           4.4871007     1.4933072    -0.3794988
H           4.3072731     2.3260227    -1.0509295
C           1.2566815    -2.5783394     2.4397346
H           0.8659881    -3.1398154     3.2765167
N           2.3676853    -1.7570914     2.5678684
C           2.5432944    -1.2500666     1.3792184
O           1.6242365    -1.6794022     0.4641112
C           0.8054026    -2.5247319     1.1616489
H          -0.0016724    -2.9797871     0.6102084
C          -0.4036317     2.2890118    -1.0912013
H          -1.3416056     2.7010510    -1.4509900
C           0.7114185     2.2290477    -1.9269155
H           0.6536817     2.5978054    -2.9501548
N           1.8955573     1.7351235    -1.5533020
C           2.0215996     1.2589109    -0.3010969
C           0.9601702     1.3002350     0.6185319
H           1.1020842     0.9487003     1.6353217
C          -0.2659781     1.8189110     0.2145166
H          -1.0978571     1.8638841     0.9124289
27
130_C14H10N2O_4-6-13-12 (60,) energy =    -724.2212839
C           5.7949939     1.1670486    -0.0027295
H           6.6312925     1.7510942    -0.3773351
C           6.0196398     0.0820216     0.8462513
H           7.0300134    -0.1904486     1.1378631
C           4.9381518    -0.6662745     1.3024958
H           5.0958446    -1.5305042     1.9403087
C           3.6254267    -0.3296746     0.9414740
C           3.3898971     0.7853997     0.1051600
C           4.4957784     1.5085282    -0.3675430
H           4.3102666     2.3515776    -1.0241428
C           1.1414250    -2.4266431     2.4526712
H           0.6483627    -2.8721427     3.3050220
N           2.2207365    -1.5652574     2.6021392
C           2.5505650    -1.2356056     1.3856324
O           1.7593323    -1.8105822     0.4314530
C           0.8616932    -2.5680821     1.1332837
H           0.1385200    -3.1202052     0.5546551
C          -0.4117089     2.2633683    -1.0605036
H          -1.3548632     2.6647889    -1.4187529
C           0.7185804     2.2687574    -1.8782335
H           0.6672741     2.6793782    -2.8857740
N           1.9085539     1.7901695    -1.5053797
C           2.0284838     1.2650333    -0.2715671
C           0.9513308     1.2390994     0.6302780
H           1.0843551     0.8498693     1.6339668
C          -0.2820173     1.7416377     0.2257681
H          -1.1258996     1.7341366     0.9105215
27
130_C14H10N2O_4-6-13-12 (75,) energy =    -724.2196038
C           5.7886530     1.1744902    -0.0367491
H           6.6188549     1.7639796    -0.4164214
C           6.0275459     0.0640750     0.7739785
H           7.0430267    -0.2244245     1.0302540
C           4.9514078    -0.6870605     1.2396461
H           5.1221906    -1.5678683     1.8513748
C           3.6326548    -0.3279390     0.9288270
C           3.3841518     0.8018598     0.1174377
C           4.4831835     1.5313214    -0.3620532
H           4.2881243     2.3871358    -0.9989764
C           1.0601612    -2.3461619     2.4133176
H           0.4740686    -2.6951400     3.2515962
N           2.0730968    -1.4080269     2.5721208
C           2.5550939    -1.2371990     1.3751499
O           1.9250017    -1.9860170     0.4211680
C           0.9709819    -2.6894203     1.1048318
H           0.3571009    -3.3602666     0.5253185
C          -0.4347997     2.2354679    -1.0479585
H          -1.3825912     2.6231855    -1.4091076
C           0.6988704     2.2613650    -1.8611581
H           0.6455307     2.6751592    -2.8673222
N           1.8938713     1.7991808    -1.4852709
C           2.0169933     1.2718435    -0.2520045
C           0.9376410     1.2272339     0.6461073
H           1.0722014     0.8373785     1.6485255
C          -0.3019736     1.7120792     0.2367944
H          -1.1482042     1.6895593     0.9183508
27
130_C14H10N2O_4-6-13-12 (90,) energy =    -724.2182275
C           5.7754925     1.1661405    -0.0331090
H           6.6138441     1.7505324    -0.4026277
C           5.9991122     0.0312426     0.7472763
H           7.0103686    -0.2806349     0.9926339
C           4.9118201    -0.7103364     1.2016794
H           5.0727929    -1.6076415     1.7921600
C           3.5972091    -0.3222308     0.9068460
C           3.3646160     0.8325463     0.1274990
C           4.4748339     1.5531640    -0.3411724
H           4.2922784     2.4256463    -0.9589919
C           0.9859829    -2.3064202     2.3859217
H           0.3046473    -2.5615951     3.1850073
N           1.8570754    -1.2278570     2.4856420
C           2.5110959    -1.2231946     1.3612032
O           2.1384718    -2.2279787     0.5122891
C           1.1607220    -2.9093878     1.1848357
H           0.7254922    -3.7560540     0.6784117
C          -0.4189909     2.3464835    -1.0504873
H          -1.3572093     2.7526002    -1.4165549
C           0.7097876     2.3177706    -1.8706197
H           0.6624173     2.7068695    -2.8869156
N           1.8928841     1.8305058    -1.4890540
C           2.0070704     1.3313776    -0.2426169
C           0.9337709     1.3423125     0.6631773
H           1.0634268     0.9703718     1.6724310
C          -0.2935555     1.8533409     0.2465945
H          -1.1360449     1.8738787     0.9328936
27
130_C14H10N2O_4-6-13-12 (105,) energy =    -724.2183460
C           5.7400277     1.1552695    -0.0256197
H           6.5836433     1.7461108    -0.3721218
C           5.9523658    -0.0145559     0.7048723
H           6.9600364    -0.3472786     0.9372915
C           4.8576176    -0.7600955     1.1305415
H           5.0110770    -1.6828928     1.6823718
C           3.5440223    -0.3484610     0.8540499
C           3.3224465     0.8434700     0.1272600
C           4.4431685     1.5675531    -0.3131233
H           4.2701860     2.4649996    -0.8968367
C           0.9511077    -2.3342756     2.3634947
H           0.1881543    -2.5232044     3.1051144
N           1.6503116    -1.1350772     2.3259860
C           2.4668720    -1.2524302     1.3190671
O           2.3742045    -2.4645325     0.6900430
C           1.3969238    -3.1394063     1.3685989
H           1.1590075    -4.1304310     1.0165008
C          -0.4093587     2.4740163    -1.0646423
H          -1.3316734     2.9116184    -1.4350093
C           0.7239184     2.4140149    -1.8769181
H           0.6964340     2.8091819    -2.8916574
N           1.8882198     1.8886046    -1.4888492
C           1.9777039     1.3786728    -0.2439351
C           0.8985104     1.4167134     0.6532418
H           1.0074281     1.0255136     1.6571688
C          -0.3089311     1.9687151     0.2296127
H          -1.1560489     2.0098201     0.9093513
27
130_C14H10N2O_4-6-13-12 (120,) energy =    -724.2191705
C           5.7161860     1.1528974    -0.0345056
H           6.5576017     1.7525914    -0.3708691
C           5.9309906    -0.0414730     0.6541821
H           6.9392935    -0.3861688     0.8654656
C           4.8381802    -0.7945480     1.0672967
H           4.9947641    -1.7348054     1.5868548
C           3.5194284    -0.3707060     0.8229060
C           3.2957837     0.8445022     0.1317536
C           4.4177062     1.5757751    -0.2957465
H           4.2429396     2.4890244    -0.8536456
C           0.9028033    -2.3591505     2.2867561
H           0.0564619    -2.5150261     2.9403644
N           1.4920829    -1.1116162     2.1417596
C           2.4595059    -1.2887306     1.2871911
O           2.5675388    -2.5890106     0.8670013
C           1.5630249    -3.2546909     1.5127771
H           1.4674025    -4.3082472     1.3040806
C          -0.3967217     2.5561455    -1.0754574
H          -1.3060251     3.0164903    -1.4505363
C           0.7376212     2.4631843    -1.8832299
H           0.7238609     2.8543591    -2.8998434
N           1.8864203     1.9101726    -1.4882759
C           1.9587615     1.4018169    -0.2408146
C           0.8770722     1.4696750     0.6504908
H           0.9688324     1.0684202     1.6512665
C          -0.3140695     2.0517124     0.2200338
H          -1.1628074     2.1151249     0.8960770
27
130_C14H10N2O_4-6-13-12 (135,) energy =    -724.2197171
C           5.7058788     1.1710365    -0.0460328
H           6.5428484     1.7782021    -0.3799502
C           5.9278187    -0.0292341     0.6298169
H           6.9382300    -0.3716805     0.8346287
C           4.8410272    -0.7920407     1.0383142
H           5.0051629    -1.7361745     1.5471373
C           3.5167020    -0.3739706     0.8046929
C           3.2861920     0.8489222     0.1260376
C           4.4037183     1.5884274    -0.2977472
H           4.2231524     2.5059754    -0.8470425
C           0.8237212    -2.3668488     2.1145681
H          -0.1118487    -2.5083185     2.6366058
N           1.3537812    -1.1041303     1.8992899
C           2.4651089    -1.3054256     1.2483288
O           2.7178264    -2.6364855     1.0294812
C           1.6586151    -3.2954422     1.5876644
H           1.6629144    -4.3710365     1.5120249
C          -0.3870844     2.5982578    -1.0827953
H          -1.2910953     3.0676336    -1.4595745
C           0.7187299     2.4189135    -1.9147858
H           0.6884416     2.7500004    -2.9521583
N           1.8608081     1.8517437    -1.5185866
C           1.9507190     1.4130211    -0.2465021
C           0.8986611     1.5685596     0.6678603
H           1.0038237     1.2150517     1.6841107
C          -0.2840171     2.1672418     0.2376998
H          -1.1104267     2.2987642     0.9312912
27
130_C14H10N2O_4-6-13-12 (150,) energy =    -724.2199692
C           5.7082809     1.1855733    -0.0589478
H           6.5413751     1.7980588    -0.3927124
C           5.9364690    -0.0087757     0.6251143
H           6.9487103    -0.3409321     0.8378048
C           4.8557007    -0.7812606     1.0302342
H           5.0282226    -1.7212501     1.5426962
C           3.5273587    -0.3797432     0.7853662
C           3.2911945     0.8429175     0.1067544
C           4.4027925     1.5902278    -0.3160069
H           4.2160394     2.5063544    -0.8661602
C           0.7552700    -2.3833746     1.8941612
H          -0.2541859    -2.5274456     2.2521409
N           1.2513220    -1.1230297     1.6035019
C           2.4762339    -1.3198070     1.2018348
O           2.8310385    -2.6465167     1.2174629
C           1.7203428    -3.3064515     1.6620326
H           1.7939472    -4.3792732     1.7410221
C          -0.3803331     2.6196085    -1.0590639
H          -1.2855549     3.0958970    -1.4241377
C           0.6796786     2.3537879    -1.9259167
H           0.6124052     2.6224829    -2.9793857
N           1.8226275     1.7756155    -1.5448643
C           1.9533868     1.4103991    -0.2547518
C           0.9486149     1.6522754     0.6926806
H           1.0899007     1.3576181     1.7233862
C          -0.2317691     2.2657930     0.2806243
H          -1.0218301     2.4663546     0.9994808
27
130_C14H10N2O_4-6-13-12 (165,) energy =    -724.2200807
C           5.7061595     1.1854098    -0.0704873
H           6.5362558     1.8018104    -0.4044205
C           5.9386766     0.0004592     0.6280143
H           6.9519715    -0.3203596     0.8528235
C           4.8626910    -0.7798826     1.0303518
H           5.0421848    -1.7138448     1.5502884
C           3.5320329    -0.3972197     0.7663796
C           3.2913836     0.8228358     0.0834067
C           4.3984340     1.5765582    -0.3379257
H           4.2063283     2.4899937    -0.8909196
C           0.7164121    -2.4256367     1.7000204
H          -0.3344600    -2.5945612     1.8872692
N           1.1921854    -1.1889337     1.2994975
C           2.4806419    -1.3422097     1.1662663
O           2.8928701    -2.6190984     1.4613624
C           1.7538621    -3.2924748     1.8008005
H           1.8668406    -4.3309175     2.0681187
C          -0.3750250     2.6477983    -1.0134806
H          -1.2790241     3.1403711    -1.3594118
C           0.6529831     2.3483411    -1.9061749
H           0.5624895     2.6046571    -2.9609252
N           1.7952844     1.7512261    -1.5491650
C           1.9520665     1.3988827    -0.2603200
C           0.9782289     1.6700066     0.7113213
H           1.1429236     1.3843833     1.7422833
C          -0.1980032     2.3057792     0.3269058
H          -0.9640073     2.5313884     1.0641232
27
130_C14H10N2O_4-6-13-12 (180,) energy =    -724.2203752
C           5.7133839     1.1744601    -0.0968792
H           6.5437771     1.7890793    -0.4333312
C           5.9443595     0.0033164     0.6248958
H           6.9569315    -0.3087091     0.8648701
C           4.8686409    -0.7780486     1.0266899
H           5.0490834    -1.7050079     1.5582542
C           3.5392950    -0.4092596     0.7383965
C           3.2994149     0.8043913     0.0435763
C           4.4060770     1.5566534    -0.3800732
H           4.2131907     2.4649116    -0.9411865
C           0.7067057    -2.4767987     1.5166390
H          -0.3502941    -2.7013027     1.5355366
N           1.1883557    -1.2895251     0.9936594
C           2.4843763    -1.3540368     1.1274262
O           2.8954383    -2.5237662     1.7186744
C           1.7476275    -3.2249936     1.9582774
H           1.8591806    -4.1904250     2.4252023
C          -0.3711621     2.6720117    -0.9640874
H          -1.2770161     3.1789069    -1.2833536
C           0.6460269     2.3980235    -1.8763237
H           0.5447657     2.6892066    -2.9209538
N           1.7904114     1.7855492    -1.5514531
C           1.9596263     1.3909736    -0.2775760
C           0.9962381     1.6337886     0.7123318
H           1.1728345     1.3165187     1.7330612
C          -0.1810462     2.2855512     0.3629869
H          -0.9382595     2.4897829     1.1153714
