18
437_C8H7N3_4-5-14-12 (-165,) energy =    -473.2875600
C           5.7950635     1.0230806    -0.1464599
H           6.6368636     1.7077933    -0.1626018
C           5.1262438     0.7437809     1.0444541
H           5.4377070     1.2121669     1.9765577
N           4.0900218    -0.0946577     1.1398408
C           3.6701572    -0.6859215     0.0238432
C           4.2491028    -0.4625273    -1.2351128
H           3.8528601    -0.9256029    -2.1312940
C           5.3365120     0.4012680    -1.3081787
H           5.8092183     0.5953827    -2.2669511
C           1.0182620    -3.0973167    -0.2258695
H           0.4229980    -3.8843807    -0.6657613
C           2.1363565    -2.5037004    -0.7594110
H           2.6671728    -2.6949410    -1.6791020
N           2.5698833    -1.5732220     0.1526651
N           1.7702251    -1.5348620     1.2538195
C           0.8411044    -2.4514237     1.0237647
H           0.0681077    -2.6177567     1.7631164
18
437_C8H7N3_4-5-14-12 (-150,) energy =    -473.2879146
C           5.8061250     1.0009215    -0.1523981
H           6.6634098     1.6662599    -0.1696925
C           5.1929637     0.6631843     1.0540584
H           5.5652944     1.0653633     1.9946144
N           4.1452528    -0.1610562     1.1534311
C           3.6531563    -0.6642184     0.0234852
C           4.1689107    -0.3749392    -1.2478038
H           3.7022774    -0.7712347    -2.1429159
C           5.2754149     0.4648200    -1.3259491
H           5.7035628     0.7107280    -2.2937109
C           1.0748273    -3.1530419    -0.1840624
H           0.5415427    -4.0064643    -0.5771414
C           2.2241909    -2.5873227    -0.6835210
H           2.8488993    -2.8587980    -1.5212623
N           2.5469394    -1.5442411     0.1464379
N           1.6550745    -1.4084462     1.1642457
C           0.7697776    -2.3753532     0.9609264
H          -0.0645139    -2.4806537     1.6426005
18
437_C8H7N3_4-5-14-12 (-135,) energy =    -473.2874285
C           5.8186681     0.9762950    -0.1557345
H           6.6920583     1.6206555    -0.1668231
C           5.2458344     0.5794722     1.0531813
H           5.6678958     0.9122557     1.9997321
N           4.1825433    -0.2261735     1.1451927
C           3.6314028    -0.6386761     0.0055784
C           4.1062895    -0.2898476    -1.2648451
H           3.5927405    -0.6292169    -2.1581534
C           5.2320409     0.5256199    -1.3382961
H           5.6315948     0.8186867    -2.3051231
C           1.1274241    -3.2051904    -0.1304816
H           0.6506758    -4.1163383    -0.4617468
C           2.2930449    -2.6524113    -0.6092397
H           2.9864026    -2.9799778    -1.3700353
N           2.5132969    -1.5083954     0.1117604
N           1.5520055    -1.3005378     1.0495436
C           0.7148624    -2.3196651     0.8954336
H          -0.1634990    -2.3827476     1.5249283
18
437_C8H7N3_4-5-14-12 (-120,) energy =    -473.2861861
C           5.8237336     0.9603442    -0.1568138
H           6.7063375     1.5922999    -0.1582887
C           5.2965066     0.4857940     1.0455198
H           5.7646315     0.7431607     1.9938497
N           4.2246111    -0.3099799     1.1249126
C           3.6195235    -0.6280965    -0.0180048
C           4.0502069    -0.2032926    -1.2788675
H           3.4973399    -0.4829205    -2.1695204
C           5.1851787     0.6017649    -1.3434183
H           5.5528878     0.9544165    -2.3029241
C           1.1712138    -3.2521630    -0.0639708
H           0.7407208    -4.2093469    -0.3202611
C           2.3589689    -2.7229626    -0.5174315
H           3.1148426    -3.1098620    -1.1855858
N           2.4928839    -1.4944751     0.0702801
N           1.4618191    -1.2100714     0.9078451
C           0.6605707    -2.2661317     0.8141807
H          -0.2624113    -2.2821064     1.3795524
18
437_C8H7N3_4-5-14-12 (-105,) energy =    -473.2848114
C           5.8256204     0.9630932    -0.1597797
H           6.7058120     1.5985851    -0.1572074
C           5.3716167     0.3823162     1.0260899
H           5.8951746     0.5592186     1.9637132
N           4.3037554    -0.4199573     1.0981890
C           3.6357066    -0.6431858    -0.0323582
C           3.9944826    -0.1136061    -1.2738316
H           3.3955046    -0.3302360    -2.1519603
C           5.1214011     0.7045853    -1.3345754
H           5.4349001     1.1387756    -2.2797395
C           1.2016575    -3.2866169     0.0088321
H           0.7979207    -4.2730595    -0.1676438
C           2.4324087    -2.8057610    -0.3839425
H           3.2515098    -3.2636716    -0.9197714
N           2.5051905    -1.5126736     0.0498652
N           1.3925400    -1.1327534     0.7301910
C           0.6033706    -2.2029664     0.6932105
H          -0.3731172    -2.1570644     1.1582179
18
437_C8H7N3_4-5-14-12 (-90,) energy =    -473.2846786
C           5.8174174     0.9803388    -0.1991106
H           6.6757918     1.6441690    -0.2344153
C           5.5404224     0.2483494     0.9562473
H           6.1795700     0.3347806     1.8327920
N           4.4978479    -0.5833764     1.0742282
C           3.7025099    -0.7116351     0.0143157
C           3.8797751    -0.0278159    -1.1899025
H           3.1792297    -0.1732223    -2.0049652
C           4.9663781     0.8379900    -1.2947202
H           5.1422713     1.3915185    -2.2127577
C           1.2147446    -3.3100384     0.0463652
H           0.8075597    -4.3038679    -0.0707926
C           2.5293888    -2.9217147    -0.1100515
H           3.4222136    -3.4742187    -0.3652686
N           2.5779003    -1.5857606     0.1576878
N           1.3547727    -1.0714054     0.4511797
C           0.5363026    -2.1201913     0.3948137
H          -0.5162012    -1.9820729     0.6070414
18
437_C8H7N3_4-5-14-12 (-75,) energy =    -473.2872741
C           5.8243575     0.9596174    -0.2443422
H           6.6881999     1.6136444    -0.3119304
C           5.6591979     0.1216973     0.8579782
H           6.3910335     0.1142651     1.6634167
N           4.6093596    -0.6948950     1.0169714
C           3.7071225    -0.7203888     0.0379436
C           3.7644779     0.0782806    -1.1073335
H           2.9758891     0.0197797    -1.8486286
C           4.8511863     0.9372672    -1.2445714
H           4.9373329     1.5768003    -2.1185218
C           1.2363192    -3.3150894     0.1016199
H           0.8453296    -4.3211963     0.0559133
C           2.5596253    -2.9350664     0.1444303
H           3.4779400    -3.5040901     0.1489577
N           2.5781736    -1.5715734     0.2377180
N           1.3254421    -1.0397462     0.1860557
C           0.5190556    -2.0959311     0.1325762
H          -0.5528407    -1.9446074     0.1209892
18
437_C8H7N3_4-5-14-12 (-60,) energy =    -473.2909303
C           5.8396826     0.9343000    -0.2562511
H           6.7173407     1.5697283    -0.3214147
C           5.7098137     0.0146456     0.7834154
H           6.4837503    -0.0768715     1.5431006
N           4.6449025    -0.7823674     0.9386400
C           3.6909950    -0.7090757     0.0111675
C           3.7091775     0.1765754    -1.0708064
H           2.8812009     0.1949252    -1.7690267
C           4.8117689     1.0157457    -1.1976739
H           4.8694840     1.7199835    -2.0229374
C           1.2629948    -3.3294354     0.1840652
H           0.8920915    -4.3429299     0.2331266
C           2.5694094    -2.9127694     0.3015725
H           3.4923874    -3.4481346     0.4678958
N           2.5596611    -1.5470849     0.2148731
N           1.3099337    -1.0608763    -0.0248928
C           0.5281757    -2.1353857    -0.0142813
H          -0.5397584    -2.0160187    -0.1454893
18
437_C8H7N3_4-5-14-12 (-45,) energy =    -473.2944764
C           5.8544058     0.9160893    -0.2612943
H           6.7432561     1.5366720    -0.3148858
C           5.7430641    -0.0763612     0.7109648
H           6.5435577    -0.2415413     1.4296061
N           4.6676775    -0.8619241     0.8481377
C           3.6787273    -0.6986051    -0.0306892
C           3.6760771     0.2638232    -1.0462183
H           2.8237912     0.3484470    -1.7086920
C           4.7924257     1.0866373    -1.1523134
H           4.8350296     1.8481188    -1.9261146
C           1.2753074    -3.3279680     0.2688493
H           0.9120448    -4.3343580     0.4181697
C           2.5661687    -2.8767814     0.4203146
H           3.4825138    -3.3666364     0.7122768
N           2.5481382    -1.5336860     0.1562557
N           1.3116722    -1.1022596    -0.2170105
C           0.5427186    -2.1812641    -0.1256778
H          -0.5148445    -2.0994541    -0.3419445
18
437_C8H7N3_4-5-14-12 (-30,) energy =    -473.2972558
C           5.8597743     0.9065060    -0.2641951
H           6.7542494     1.5199049    -0.3029944
C           5.7661369    -0.1512576     0.6379215
H           6.5867901    -0.3768000     1.3163029
N           4.6876252    -0.9361576     0.7503966
C           3.6702994    -0.6972834    -0.0774627
C           3.6484296     0.3342637    -1.0236705
H           2.7775369     0.4731785    -1.6513967
C           4.7718735     1.1490643    -1.1066427
H           4.7997775     1.9623570    -1.8265532
C           1.2702882    -3.3146626     0.3452780
H           0.9013783    -4.2993351     0.5929528
C           2.5494888    -2.8378324     0.5148820
H           3.4497106    -3.2787693     0.9132855
N           2.5445314    -1.5395751     0.0811486
N           1.3280500    -1.1628640    -0.4000018
C           0.5580451    -2.2300867    -0.2249577
H          -0.4851227    -2.1850374    -0.5106869
18
437_C8H7N3_4-5-14-12 (-15,) energy =    -473.2989622
C           5.8615022     0.9024550    -0.2671135
H           6.7573045     1.5144236    -0.2944681
C           5.7917944    -0.2137399     0.5632905
H           6.6333258    -0.4882968     1.1965282
N           4.7161380    -1.0053900     0.6525990
C           3.6695858    -0.7039972    -0.1161510
C           3.6221715     0.3899665    -0.9895187
H           2.7318167     0.5734746    -1.5768420
C           4.7472340     1.2033507    -1.0550731
H           4.7551691     2.0635035    -1.7188532
C           1.2556794    -3.2907693     0.4168632
H           0.8693499    -4.2409185     0.7559198
C           2.5251013    -2.7946515     0.6030704
H           3.4002928    -3.1835597     1.0983744
N           2.5523042    -1.5602201     0.0123866
N           1.3629510    -1.2394852    -0.5668966
C           0.5807214    -2.2815338    -0.3149510
H          -0.4435639    -2.2738149    -0.6651310
18
437_C8H7N3_4-5-14-12 (0,) energy =    -473.2995319
C           5.8671443     0.8986837    -0.2688591
H           6.7622377     1.5119231    -0.2890580
C           5.8268249    -0.2700747     0.4875688
H           6.6910164    -0.5857444     1.0690178
N           4.7571411    -1.0717047     0.5570820
C           3.6795155    -0.7164883    -0.1425439
C           3.6006757     0.4339171    -0.9381202
H           2.6890992     0.6554925    -1.4776751
C           4.7246098     1.2492994    -0.9934999
H           4.7085805     2.1519357    -1.5980978
C           1.2354776    -3.2544444     0.4846549
H           0.8207641    -4.1587810     0.9055882
C           2.4959238    -2.7432281     0.6897519
H           3.3377802    -3.0769414     1.2746170
N           2.5724221    -1.5889263    -0.0417850
N           1.4182208    -1.3266925    -0.7140854
C           0.6139120    -2.3326772    -0.3951195
H          -0.3867137    -2.3637897    -0.8069607
18
437_C8H7N3_4-5-14-12 (15,) energy =    -473.2989622
C           5.8649964     0.8971058    -0.2751781
H           6.7557239     1.5168442    -0.2908159
C           5.8593371    -0.3171494     0.4073714
H           6.7469709    -0.6622917     0.9341823
N           4.7997729    -1.1334373     0.4595306
C           3.6917329    -0.7379038    -0.1672758
C           3.5765584     0.4598029    -0.8842202
H           2.6436559     0.7084528    -1.3733234
C           4.6944540     1.2841599    -0.9332297
H           4.6508880     2.2231628    -1.4781199
C           1.2049456    -3.2130927     0.5339834
H           0.7527421    -4.0623862     1.0251106
C           2.4559171    -2.6887267     0.7627813
H           3.2556500    -2.9621046     1.4322795
N           2.5982268    -1.6305279    -0.0936247
N           1.4880049    -1.4309451    -0.8555791
C           0.6523790    -2.3912425    -0.4803682
H          -0.3193918    -2.4639253    -0.9517757
18
437_C8H7N3_4-5-14-12 (30,) energy =    -473.2972558
C           5.8666507     0.8959791    -0.2800660
H           6.7507688     1.5252347    -0.2949561
C           5.9013840    -0.3583233     0.3257106
H           6.8142899    -0.7251076     0.7911291
N           4.8543387    -1.1913992     0.3655458
C           3.7152477    -0.7660992    -0.1812223
C           3.5589163     0.4713122    -0.8170291
H           2.6037373     0.7392723    -1.2501826
C           4.6667941     1.3099447    -0.8640669
H           4.5921684     2.2802131    -1.3472902
C           1.1696419    -3.1605699     0.5776174
H           0.6700058    -3.9450977     1.1270690
C           2.4124914    -2.6280853     0.8311371
H           3.1615309    -2.8375591     1.5785395
N           2.6361411    -1.6798305    -0.1303277
N           1.5770474    -1.5440834    -0.9748024
C           0.7010003    -2.4489532    -0.5549640
H          -0.2378112    -2.5636754    -1.0815959
18
437_C8H7N3_4-5-14-12 (45,) energy =    -473.2944764
C           5.8674478     0.8961230    -0.2913980
H           6.7419001     1.5387497    -0.3117517
C           5.9489573    -0.3915876     0.2356697
H           6.8890953    -0.7705667     0.6319464
N           4.9172301    -1.2439941     0.2720557
C           3.7461646    -0.8018522    -0.1863641
C           3.5433163     0.4670847    -0.7397417
H           2.5647884     0.7449882    -1.1107898
C           4.6362551     1.3257399    -0.7917952
H           4.5259596     2.3213142    -1.2126327
C           1.1281207    -3.1026210     0.6086258
H           0.5728050    -3.8149735     1.2012940
C           2.3612328    -2.5630192     0.8934034
H           3.0487452    -2.7025263     1.7136186
N           2.6809773    -1.7370648    -0.1503975
N           1.6832546    -1.6711597    -1.0747948
C           0.7592946    -2.5128459    -0.6256353
H          -0.1406374    -2.6723726    -1.2057883
18
437_C8H7N3_4-5-14-12 (60,) energy =    -473.2909303
C           5.8652337     0.8951819    -0.3152319
H           6.7301557     1.5501095    -0.3509944
C           5.9940723    -0.4205600     0.1272162
H           6.9616332    -0.8085207     0.4399260
N           4.9759718    -1.2892414     0.1743793
C           3.7741883    -0.8364456    -0.1808794
C           3.5248916     0.4587229    -0.6453858
H           2.5226400     0.7438918    -0.9412978
C           4.6019624     1.3369660    -0.7133392
H           4.4556884     2.3535160    -1.0677002
C           1.0729963    -3.0385424     0.6226715
H           0.4559227    -3.6751446     1.2400087
C           2.2878105    -2.4816342     0.9516356
H           2.8974771    -2.5373129     1.8412278
N           2.7163164    -1.7869267    -0.1467586
N           1.7987978    -1.8093372    -1.1534178
C           0.8236028    -2.5876901    -0.6962636
H          -0.0257697    -2.8029458    -1.3320141
18
437_C8H7N3_4-5-14-12 (75,) energy =    -473.2872741
C           5.8687206     0.8916978    -0.3467492
H           6.7282884     1.5522692    -0.4044693
C           6.0326154    -0.4500130    -0.0040414
H           7.0218260    -0.8514927     0.2072552
N           5.0212056    -1.3254403     0.0662401
C           3.7968564    -0.8577725    -0.1692023
C           3.5132922     0.4628535    -0.5274765
H           2.4912834     0.7617246    -0.7299288
C           4.5796184     1.3530458    -0.6176618
H           4.4064581     2.3895844    -0.8930098
C           1.0136486    -2.9741747     0.6156483
H           0.3332808    -3.5372370     1.2379614
C           2.1887588    -2.3672606     1.0005643
H           2.6968254    -2.3081851     1.9521361
N           2.7340751    -1.8102613    -0.1221742
N           1.9304843    -1.9660786    -1.2106632
C           0.9086918    -2.6924721    -0.7668856
H           0.1312312    -2.9919360    -1.4581678
18
437_C8H7N3_4-5-14-12 (90,) energy =    -473.2846786
C           5.8947748     0.8619043    -0.3776838
H           6.7707820     1.4987382    -0.4536932
C           6.0382559    -0.5138447    -0.1929831
H           7.0271431    -0.9628731    -0.1238013
N           5.0052598    -1.3602353    -0.0971144
C           3.7838200    -0.8361219    -0.1733840
C           3.5205902     0.5221063    -0.3607322
H           2.4963710     0.8722527    -0.4286040
C           4.6065011     1.3889718    -0.4639515
H           4.4485589     2.4536107    -0.6113396
C           0.9694183    -2.9344379     0.6126929
H           0.2428888    -3.4393438     1.2327311
C           2.0347398    -2.1643955     1.0318297
H           2.3907566    -1.8950348     2.0158161
N           2.6862532    -1.7516505    -0.0924402
N           2.0830074    -2.1863484    -1.2299252
C           1.0529941    -2.9112569    -0.7979502
H           0.4049358    -3.3923534    -1.5193710
18
437_C8H7N3_4-5-14-12 (105,) energy =    -473.2848114
C           5.9159345     0.8248218    -0.3682632
H           6.8188859     1.4254680    -0.4182313
C           5.9928536    -0.5688105    -0.4080123
H           6.9572615    -1.0668590    -0.4880762
N           4.9263762    -1.3732025    -0.3391077
C           3.7317422    -0.7902171    -0.2540504
C           3.5338797     0.5915890    -0.2105416
H           2.5290887     0.9962682    -0.1518644
C           4.6574606     1.4148905    -0.2635803
H           4.5488190     2.4953877    -0.2342464
C           0.9476386    -2.8977070     0.5952273
H           0.1947929    -3.3496563     1.2246567
C           1.8552611    -1.9221337     0.9483854
H           2.0385731    -1.4066368     1.8802550
N           2.5987171    -1.6558636    -0.1660357
N           2.2389336    -2.4285998    -1.2236785
C           1.2342183    -3.1688073    -0.7630791
H           0.7466516    -3.8714545    -1.4267302
18
437_C8H7N3_4-5-14-12 (120,) energy =    -473.2861861
C           5.9150905     0.8204759    -0.3677057
H           6.8164951     1.4236474    -0.4125814
C           5.9819403    -0.5636187    -0.5367778
H           6.9378055    -1.0529932    -0.7143800
N           4.9185365    -1.3723934    -0.4769874
C           3.7322591    -0.8006958    -0.2782481
C           3.5424087     0.5741589    -0.1066298
H           2.5441867     0.9763792     0.0308042
C           4.6655220     1.3973721    -0.1438059
H           4.5621673     2.4712327    -0.0158770
C           0.8976245    -2.8332902     0.5676028
H           0.0920350    -3.2161928     1.1772101
C           1.7569288    -1.8012242     0.8723611
H           1.8462235    -1.1675758     1.7429831
N           2.6065413    -1.6684857    -0.1920912
N           2.3595106    -2.5844558    -1.1644438
C           1.3203237    -3.2762272    -0.7088361
H           0.9055055    -4.0702122    -1.3165447
18
437_C8H7N3_4-5-14-12 (135,) energy =    -473.2874285
C           5.9173996     0.8251362    -0.3836495
H           6.8109771     1.4385894    -0.4413397
C           5.9801048    -0.5447113    -0.6418549
H           6.9262075    -1.0142474    -0.9050365
N           4.9265528    -1.3652679    -0.5723264
C           3.7502178    -0.8205831    -0.2686995
C           3.5624651     0.5427616    -0.0094412
H           2.5719892     0.9335786     0.1982206
C           4.6774219     1.3747557    -0.0579730
H           4.5736352     2.4384487     0.1371458
C           0.8451104    -2.7729605     0.5212315
H          -0.0197264    -3.0899364     1.0858552
C           1.6822424    -1.7172575     0.8007796
H           1.6950689    -1.0029153     1.6109681
N           2.6394134    -1.7014811    -0.1793732
N           2.4723909    -2.7096674    -1.0751339
C           1.3864490    -3.3478781    -0.6549005
H           1.0234653    -4.2000156    -1.2151384
18
437_C8H7N3_4-5-14-12 (150,) energy =    -473.2879146
C           5.9182193     0.8293037    -0.4111611
H           6.8035084     1.4517670    -0.4931017
C           5.9694478    -0.5256292    -0.7384267
H           6.8985969    -0.9759520    -1.0832675
N           4.9252370    -1.3552285    -0.6471343
C           3.7674696    -0.8392332    -0.2404006
C           3.5896758     0.5118843     0.0893441
H           2.6142386     0.8945788     0.3687889
C           4.6959011     1.3520706     0.0118430
H           4.5969674     2.4049527     0.2608321
C           0.7945309    -2.7239002     0.4629942
H          -0.1263301    -2.9839342     0.9646223
C           1.6127037    -1.6511203     0.7280793
H           1.5515541    -0.8725311     1.4736191
N           2.6711024    -1.7343361    -0.1401862
N           2.5746540    -2.8163425    -0.9585722
C           1.4439035    -3.4074543    -0.5952701
H           1.1276984    -4.3059572    -1.1095822
18
437_C8H7N3_4-5-14-12 (165,) energy =    -473.2875600
C           5.9206933     0.8307399    -0.4364684
H           6.8015219     1.4556992    -0.5427058
C           5.9414557    -0.5043259    -0.8374326
H           6.8426483    -0.9388293    -1.2667001
N           4.8989496    -1.3331437    -0.7275404
C           3.7730782    -0.8434945    -0.2137441
C           3.6272082     0.4896093     0.2005136
H           2.6817836     0.8673439     0.5721008
C           4.7299320     1.3299577     0.0920954
H           4.6517812     2.3674475     0.4049591
C           0.7484281    -2.6841938     0.3970342
H          -0.2216118    -2.8974676     0.8223000
C           1.5342480    -1.5818574     0.6305379
H           1.3855604    -0.7327620     1.2794595
N           2.6818384    -1.7446266    -0.1057780
N           2.6663026    -2.9067759    -0.8147445
C           1.5053763    -3.4684380    -0.5096843
H           1.2454876    -4.4203511    -0.9548257
18
437_C8H7N3_4-5-14-12 (180,) energy =    -473.2871346
C           5.7952326     1.0452078    -0.1397491
H           6.6296856     1.7388621    -0.1522296
C           5.0505180     0.8445846     1.0210030
H           5.2955428     1.3825222     1.9352754
N           4.0127792     0.0072991     1.1071876
C           3.6734555    -0.6741181     0.0157169
C           4.3504638    -0.5539201    -1.2087650
H           4.0552231    -1.1199973    -2.0840191
C           5.4271843     0.3231006    -1.2754095
H           5.9714816     0.4383462    -2.2085946
C           0.9711408    -3.0319308    -0.2516003
H           0.3167549    -3.7512687    -0.7224558
C           2.0224368    -2.3634776    -0.8290559
H           2.4111436    -2.4029193    -1.8341954
N           2.5665106    -1.5553248     0.1398695
N           1.9052021    -1.6768837     1.3243287
C           0.9496762    -2.5626662     1.0862511
H           0.2729543    -2.8379452     1.8850875
