17
235_C7H7NO2_0-1-8-6 (-165,) energy =    -476.1629658
C           1.8009731    -1.0504043    -1.0695330
O           2.2309528    -0.5892031     0.1679511
C           5.7038390     1.4566623     0.8880840
H           6.6176977     2.0201424     1.0464036
C           5.0142582     0.8700501     1.9537022
H           5.3774810     0.9696676     2.9728340
C           3.8499666     0.1576174     1.6955307
H           3.2723080    -0.3181000     2.4802890
C           3.4357125     0.0589777     0.3610312
N           4.0511175     0.6301848    -0.6600145
C           5.1761551     1.3090213    -0.3915504
H           5.6668201     1.7627345    -1.2505430
C           0.2953235    -1.1506522    -1.0552969
H          -0.0421826    -1.6584239    -1.9594795
H          -0.1402776    -0.1460657    -1.0122823
H          -0.0440112    -1.6922419    -0.1669215
O           2.5254504    -1.3609475    -1.9732289
17
235_C7H7NO2_0-1-8-6 (-150,) energy =    -476.1647488
C           1.5850882    -1.2214629    -0.1912216
O           2.1105298     0.0551517    -0.3246466
C           5.8522340     1.1308647     0.9420405
H           6.8617991     1.3836237     1.2496637
C           4.8242609     2.0770967     0.9695706
H           5.0141070     3.0948648     1.2990358
C           3.5475546     1.7002908     0.5682356
H           2.7096626     2.3885918     0.5706878
C           3.3662752     0.3753981     0.1584622
N           4.3275818    -0.5313125     0.0942396
C           5.5493244    -0.1532914     0.4953394
H           6.3207831    -0.9190329     0.4415070
C           0.4905521    -1.4146545    -1.2106600
H          -0.0412165    -2.3431404    -1.0001105
H           0.9295380    -1.4616504    -2.2136283
H          -0.2021125    -0.5676786    -1.1959528
O           1.9341627    -2.0139625     0.6395231
17
235_C7H7NO2_0-1-8-6 (-135,) energy =    -476.1659905
C           1.5784922    -1.1501188    -0.1972059
O           2.1716280     0.0629375    -0.5021479
C           5.8434749     1.1193403     0.9725909
H           6.8383591     1.3632173     1.3312521
C           4.7993893     2.0449264     1.0345954
H           4.9610091     3.0377022     1.4452450
C           3.5420683     1.6777607     0.5649015
H           2.6922248     2.3507320     0.5911856
C           3.4004308     0.3871749     0.0506244
N           4.3768921    -0.5014381    -0.0419399
C           5.5774174    -0.1350987     0.4265587
H           6.3630504    -0.8840647     0.3485865
C           0.4770291    -1.4315641    -1.1874595
H          -0.0987084    -2.2954167    -0.8537221
H           0.9151050    -1.6388981    -2.1701551
H          -0.1742917    -0.5591198    -1.2965917
O           1.8935222    -1.8361630     0.7369058
17
235_C7H7NO2_0-1-8-6 (-120,) energy =    -476.1665457
C           1.5831329    -1.0879019    -0.2023028
O           2.2572254     0.0266845    -0.6606303
C           5.8396647     1.1114766     1.0062773
H           6.8138537     1.3606814     1.4147029
C           4.7661982     2.0000734     1.0926848
H           4.8824120     2.9670124     1.5741587
C           3.5370045     1.6276620     0.5555028
H           2.6655238     2.2716514     0.5957631
C           3.4555026     0.3730183    -0.0487256
N           4.4588414    -0.4831181    -0.1575087
C           5.6318052    -0.1134174     0.3737603
H           6.4420623    -0.8336657     0.2792655
C           0.4690926    -1.4340904    -1.1572403
H          -0.1599295    -2.2076660    -0.7157104
H           0.8965745    -1.8002972    -2.0972295
H          -0.1264969    -0.5467302    -1.3917395
O           1.8582490    -1.6627795     0.8171810
17
235_C7H7NO2_0-1-8-6 (-105,) energy =    -476.1665832
C           1.5616116    -1.0185492    -0.1978252
O           2.3319868    -0.0368799    -0.7810621
C           5.8299296     1.1118864     1.0225029
H           6.7850753     1.3768225     1.4647504
C           4.7176322     1.9473464     1.1407312
H           4.7832436     2.8867292     1.6824956
C           3.5160085     1.5569662     0.5556606
H           2.6180268     2.1618365     0.6153777
C           3.5006798     0.3398585    -0.1243397
N           4.5389004    -0.4689008    -0.2576057
C           5.6862514    -0.0814574     0.3163580
H           6.5277902    -0.7612365     0.1987109
C           0.4483816    -1.4179138    -1.1327179
H          -0.2465469    -2.0754238    -0.6094675
H           0.8707024    -1.9429083    -1.9966166
H          -0.0738227    -0.5335151    -1.5096950
O           1.7721295    -1.4655202     0.8996074
17
235_C7H7NO2_0-1-8-6 (-90,) energy =    -476.1664632
C           1.4703021    -0.9577288    -0.1694105
O           2.3558688    -0.1519750    -0.8463961
C           5.7858149     1.0960173     1.0240623
H           6.7262996     1.3870775     1.4810442
C           4.6364181     1.8754133     1.1698521
H           4.6572127     2.7948138     1.7482208
C           3.4565943     1.4558410     0.5621284
H           2.5334494     2.0191712     0.6404723
C           3.4974491     0.2658737    -0.1639368
N           4.5700097    -0.4913125    -0.3194367
C           5.6985472    -0.0741640     0.2723018
H           6.5700280    -0.7106641     0.1325002
C           0.3669303    -1.3932771    -1.0997844
H          -0.3633223    -1.9829905    -0.5450665
H           0.7867998    -1.9912615    -1.9154041
H          -0.1164416    -0.5203913    -1.5500163
O           1.5875760    -1.2486097     0.9934593
17
235_C7H7NO2_0-1-8-6 (-75,) energy =    -476.1665391
C           1.4309082    -0.8863031    -0.1534992
O           2.4281505    -0.2658120    -0.8671549
C           5.7992830     1.1147523     1.0163440
H           6.7280688     1.4429596     1.4720438
C           4.6084825     1.8188422     1.2094262
H           4.5849790     2.7143298     1.8240450
C           3.4455664     1.3575048     0.6006818
H           2.4937727     1.8631096     0.7166243
C           3.5432255     0.1994260    -0.1714552
N           4.6548415    -0.4873959    -0.3705646
C           5.7681469    -0.0275378     0.2194673
H           6.6723065    -0.6063433     0.0414624
C           0.3627591    -1.3820663    -1.0950140
H          -0.4433900    -1.8393639    -0.5207387
H           0.7904945    -2.1144196    -1.7874898
H          -0.0255698    -0.5532776    -1.6956854
O           1.4391462    -1.0012690     1.0459625
17
235_C7H7NO2_0-1-8-6 (-60,) energy =    -476.1667836
C           1.3782144    -0.8118387    -0.1444025
O           2.4791574    -0.3791461    -0.8424116
C           5.8163834     1.1368674     0.9980186
H           6.7410090     1.4995264     1.4357888
C           4.5954409     1.7666152     1.2506218
H           4.5438779     2.6393557     1.8954981
C           3.4385590     1.2645760     0.6631263
H           2.4677502     1.7140420     0.8317281
C           3.5726945     0.1381306    -0.1515678
N           4.7139370    -0.4783707    -0.4077902
C           5.8193270     0.0221586     0.1630420
H           6.7464612    -0.5006635    -0.0634632
C           0.3617849    -1.3776079    -1.1037731
H          -0.5228880    -1.6936181    -0.5503574
H           0.7919268    -2.2294847    -1.6404458
H           0.0897659    -0.6254846    -1.8514014
O           1.2678246    -0.7418882     1.0540171
17
235_C7H7NO2_0-1-8-6 (-45,) energy =    -476.1669212
C           1.3159639    -0.7358229    -0.1505684
O           2.5045825    -0.4835849    -0.7873758
C           5.8357208     1.1477524     0.9667005
H           6.7622304     1.5367142     1.3770319
C           4.6011225     1.7161649     1.2863103
H           4.5400990     2.5681505     1.9576850
C           3.4391037     1.1840377     0.7350718
H           2.4622881     1.5881203     0.9632209
C           3.5842425     0.0862489    -0.1184701
N           4.7409637    -0.4711484    -0.4395212
C           5.8478127     0.0586678     0.0985359
H           6.7846705    -0.4182323    -0.1830216
C           0.3588051    -1.3858889    -1.1180277
H          -0.5909977    -1.5740529    -0.6167670
H           0.7819626    -2.3262548    -1.4857684
H           0.2037699    -0.7373842    -1.9864692
O           1.0906326    -0.4776770     1.0059593
17
235_C7H7NO2_0-1-8-6 (-30,) energy =    -476.1668255
C           1.2629651    -0.6666460    -0.1761736
O           2.5189874    -0.5722214    -0.7135451
C           5.8544502     1.1615430     0.9356570
H           6.7848682     1.5728752     1.3140225
C           4.6168764     1.6748713     1.3254381
H           4.5564947     2.5065072     2.0220608
C           3.4464484     1.1171153     0.8165641
H           2.4703422     1.4786412     1.1044568
C           3.5886328     0.0482276    -0.0753524
N           4.7510869    -0.4564959    -0.4631895
C           5.8623960     0.0961689     0.0379484
H           6.8004727    -0.3406298    -0.2995211
C           0.3688677    -1.4117430    -1.1363333
H          -0.6329150    -1.4877032    -0.7126684
H           0.7736256    -2.4110290    -1.3262130
H           0.3313582    -0.8882268    -2.0972792
O           0.9326006    -0.2279616     0.8987563
17
235_C7H7NO2_0-1-8-6 (-15,) energy =    -476.1667151
C           1.2247057    -0.5872145    -0.2225261
O           2.5245214    -0.6287914    -0.6448976
C           5.8675373     1.1746007     0.9158836
H           6.8017136     1.6001055     1.2684202
C           4.6342849     1.6330398     1.3783861
H           4.5802767     2.4353498     2.1091963
C           3.4568338     1.0599504     0.9016512
H           2.4845205     1.3804354     1.2431255
C           3.5891045     0.0302165    -0.0378205
N           4.7493890    -0.4224461    -0.4946666
C           5.8649987     0.1436345    -0.0217376
H           6.7989553    -0.2521048    -0.4166479
C           0.3830214    -1.4425475    -1.1379182
H          -0.6546196    -1.4156462    -0.8040940
H           0.7527750    -2.4729435    -1.1342216
H           0.4557358    -1.0749137    -2.1667068
O           0.8152967     0.0308402     0.7310756
17
235_C7H7NO2_0-1-8-6 (0,) energy =    -476.1666831
C           1.2065371    -0.5129932    -0.2817280
O           2.5285788    -0.6795933    -0.5844577
C           5.8707122     1.1873380     0.9027304
H           6.8052965     1.6265618     1.2368615
C           4.6438157     1.5900745     1.4288198
H           4.5950092     2.3608244     2.1932359
C           3.4649126     1.0019559     0.9737198
H           2.4967111     1.2863792     1.3558872
C           3.5896041     0.0148148    -0.0117081
N           4.7445534    -0.3856450    -0.5281101
C           5.8609477     0.1939647    -0.0748274
H           6.7897903    -0.1584453    -0.5197759
C           0.3871680    -1.4572348    -1.1276414
H          -0.6690628    -1.3327409    -0.8873594
H           0.6954707    -2.4912695    -0.9424528
H           0.5571060    -1.2528503    -2.1897469
O           0.7612678     0.2631153     0.5301393
17
235_C7H7NO2_0-1-8-6 (15,) energy =    -476.1667151
C           1.2116255    -0.4539232    -0.3539903
O           2.5373486    -0.7391529    -0.5280065
C           5.8646831     1.2009680     0.8956414
H           6.7950259     1.6587506     1.2163919
C           4.6439623     1.5408954     1.4780717
H           4.5965415     2.2786063     2.2744696
C           3.4706263     0.9312118     1.0380032
H           2.5062097     1.1752143     1.4564417
C           3.5940273    -0.0105992     0.0093977
N           4.7427390    -0.3521959    -0.5596038
C           5.8547910     0.2469970    -0.1202410
H           6.7791048    -0.0558516    -0.6089328
C           0.3874657    -1.4672280    -1.1103057
H          -0.6714176    -1.2484372    -0.9697777
H           0.6130581    -2.4771532    -0.7527180
H           0.6394276    -1.4358093    -2.1752597
O           0.7697896     0.4632860     0.2960718
17
235_C7H7NO2_0-1-8-6 (30,) energy =    -476.1668258
C           1.2371734    -0.4055624    -0.4393161
O           2.5465998    -0.8050660    -0.4721748
C           5.8469892     1.2221111     0.8876583
H           6.7689262     1.7049275     1.1958044
C           4.6343826     1.4890958     1.5243130
H           4.5858242     2.1920224     2.3514059
C           3.4739902     0.8482015     1.0968816
H           2.5151941     1.0384348     1.5561021
C           3.5999248    -0.0449991     0.0270297
N           4.7389273    -0.3178323    -0.5932151
C           5.8411576     0.3090128    -0.1645685
H           6.7598878     0.0638984    -0.6942104
C           0.3793743    -1.4688396    -1.0797131
H          -0.6655560    -1.1593113    -1.0458714
H           0.5065954    -2.4210339    -0.5544583
H           0.6910800    -1.6258896    -2.1173872
O           0.8403552     0.6367443     0.0224099
17
235_C7H7NO2_0-1-8-6 (45,) energy =    -476.1669216
C           1.2796833    -0.3756319    -0.5138620
O           2.5494084    -0.8780114    -0.3820232
C           5.8237504     1.2507082     0.8756681
H           6.7360869     1.7644096     1.1617383
C           4.6273595     1.4491823     1.5675721
H           4.5830026     2.1271649     2.4153455
C           3.4824647     0.7676277     1.1650643
H           2.5338214     0.8991564     1.6673343
C           3.6041412    -0.0874640     0.0656310
N           4.7248162    -0.2953854    -0.6071437
C           5.8163317     0.3671799    -0.2010326
H           6.7236778     0.1768611    -0.7710440
C           0.3701763    -1.4511853    -1.0530172
H          -0.6437974    -1.0594248    -1.1377398
H           0.3831170    -2.3223055    -0.3899556
H           0.7269482    -1.7833399    -2.0333653
O           0.9593620     0.7553489    -0.2432239
17
235_C7H7NO2_0-1-8-6 (60,) energy =    -476.1667842
C           1.3327114    -0.3642135    -0.5961098
O           2.5409647    -0.9331798    -0.2752845
C           5.8001936     1.2795493     0.8665768
H           6.7050183     1.8197605     1.1265022
C           4.6308692     1.4139104     1.6187194
H           4.6009008     2.0667921     2.4865025
C           3.4980376     0.6975188     1.2458281
H           2.5664363     0.7712693     1.7931791
C           3.6016543    -0.1204619     0.1185447
N           4.6939217    -0.2665855    -0.6120428
C           5.7774673     0.4277607    -0.2351084
H           6.6645148     0.2903672    -0.8503280
C           0.3724365    -1.4365334    -1.0451168
H          -0.5962518    -0.9871127    -1.2652235
H           0.2664530    -2.1982689    -0.2659743
H           0.7647215    -1.9356061    -1.9372280
O           1.1021274     0.8169084    -0.5249138
17
235_C7H7NO2_0-1-8-6 (75,) energy =    -476.1665387
C           1.3792050    -0.3700484    -0.6759770
O           2.5059142    -0.9618517    -0.1570812
C           5.7788754     1.2961233     0.8457914
H           6.6817628     1.8546689     1.0712487
C           4.6535804     1.3755373     1.6694480
H           4.6559157     2.0016715     2.5572442
C           3.5218536     0.6374125     1.3377131
H           2.6207231     0.6618204     1.9396737
C           3.5819941    -0.1429623     0.1825855
N           4.6314717    -0.2362691    -0.6155071
C           5.7160434     0.4780114    -0.2801148
H           6.5694358     0.3858112    -0.9490159
C           0.3713988    -1.4271823    -1.0502565
H          -0.5358128    -0.9490149    -1.4205845
H           0.1403755    -2.0532525    -0.1824517
H           0.7906732    -2.0810857    -1.8219342
O           1.2477809     0.8212039    -0.8007119
17
235_C7H7NO2_0-1-8-6 (90,) energy =    -476.1664639
C           1.4115201    -0.3818107    -0.7508683
O           2.4431869    -0.9454839    -0.0369243
C           5.7630688     1.3014943     0.8290317
H           6.6740771     1.8610685     1.0161154
C           4.6914342     1.3398109     1.7234374
H           4.7449608     1.9348394     2.6308046
C           3.5466456     0.6025450     1.4349066
H           2.6836273     0.5935652     2.0912559
C           3.5419882    -0.1380174     0.2532157
N           4.5409739    -0.1937010    -0.6109786
C           5.6365114     0.5221968    -0.3193446
H           6.4474628     0.4631823    -1.0425537
C           0.3756652    -1.4322044    -1.0613412
H          -0.4688367    -0.9687543    -1.5720069
H           0.0394282    -1.9179400    -0.1398031
H           0.8158936    -2.2072828    -1.6974376
O           1.3724835     0.7811347    -1.0617797
17
235_C7H7NO2_0-1-8-6 (105,) energy =    -476.1665789
C           1.4400514    -0.3941466    -0.8226276
O           2.3723068    -0.8820236     0.0667516
C           5.7623260     1.2982457     0.8205720
H           6.6877453     1.8431788     0.9776456
C           4.7452423     1.3043698     1.7768688
H           4.8567451     1.8590186     2.7043594
C           3.5776979     0.5895411     1.5230894
H           2.7525612     0.5592105     2.2259290
C           3.4982583    -0.1009115     0.3142214
N           4.4474606    -0.1290442    -0.6067674
C           5.5623191     0.5692299    -0.3506729
H           6.3298466     0.5357747    -1.1213659
C           0.3915715    -1.4451343    -1.0846382
H          -0.3872417    -1.0286792    -1.7240167
H          -0.0406215    -1.7951143    -0.1418633
H           0.8520039    -2.3096813    -1.5744738
O           1.4810344     0.7135766    -1.2914276
17
235_C7H7NO2_0-1-8-6 (120,) energy =    -476.1665455
C           1.4516244    -0.4022159    -0.8867292
O           2.2888772    -0.7703130     0.1476329
C           5.7737133     1.2764615     0.8229439
H           6.7211081     1.7876258     0.9612549
C           4.8007255     1.2646205     1.8242187
H           4.9709086     1.7704820     2.7704962
C           3.6013752     0.5970178     1.5917479
H           2.8065787     0.5566545     2.3282815
C           3.4469161    -0.0316059     0.3560835
N           4.3564688    -0.0491791    -0.6050618
C           5.5004021     0.6069181    -0.3689793
H           6.2324392     0.5860089    -1.1738792
C           0.4086749    -1.4701895    -1.0981007
H          -0.3243298    -1.1221108    -1.8264480
H          -0.0839407    -1.7166868    -0.1524482
H           0.8895017    -2.3835215    -1.4649350
O           1.5536941     0.6306670    -1.4935822
17
235_C7H7NO2_0-1-8-6 (135,) energy =    -476.1659875
C           1.4419084    -0.3971528    -0.9514619
O           2.1945557    -0.6204653     0.1886519
C           5.7824453     1.2482441     0.8275901
H           6.7542506     1.7133066     0.9588147
C           4.8460329     1.2125842     1.8632162
H           5.0712920     1.6517666     2.8310681
C           3.6131452     0.6076725     1.6388505
H           2.8446726     0.5534838     2.4019575
C           3.3858052     0.0633614     0.3730654
N           4.2627443     0.0619445    -0.6182062
C           5.4395348     0.6596839    -0.3883773
H           6.1417385     0.6546056    -1.2197218
C           0.4224837    -1.4978715    -1.1011387
H          -0.2512751    -1.2583752    -1.9243449
H          -0.1435584    -1.6232591    -0.1728014
H           0.9329576    -2.4456624    -1.3039557
O           1.5793777     0.5539172    -1.6718895
17
235_C7H7NO2_0-1-8-6 (150,) energy =    -476.1647468
C           1.4370647    -0.3937692    -1.0186262
O           2.1110830    -0.4512757     0.1921474
C           5.7942626     1.2144542     0.8403353
H           6.7874686     1.6294424     0.9783907
C           4.8793866     1.1498588     1.8947264
H           5.1442278     1.5133766     2.8837427
C           3.6183349     0.6119540     1.6637053
H           2.8654094     0.5380100     2.4405416
C           3.3367621     0.1645455     0.3688391
N           4.1939296     0.1864030    -0.6387019
C           5.4008478     0.7184376    -0.4004400
H           6.0848172     0.7330511    -1.2468379
C           0.4364855    -1.5205554    -1.0811813
H          -0.1902676    -1.3999153    -1.9653286
H          -0.1812850    -1.5334928    -0.1777925
H           0.9646830    -2.4792006    -1.1301096
O           1.6088286     0.4547965    -1.8495661
17
235_C7H7NO2_0-1-8-6 (165,) energy =    -476.1629658
C           1.4861309    -0.3932988    -1.0909632
O           2.0836561    -0.2818805     0.1578134
C           5.8353099     1.1822230     0.8970710
H           6.8428699     1.5501700     1.0618367
C           4.9194563     1.0674828     1.9474124
H           5.1989778     1.3414439     2.9609695
C           3.6414440     0.5923550     1.6814635
H           2.8891641     0.4807840     2.4544235
C           3.3386331     0.2615400     0.3544087
N           4.1948923     0.3304769    -0.6503840
C           5.4218932     0.7965327    -0.3749581
H           6.1043997     0.8502244    -1.2209964
C           0.4641002    -1.5025851    -1.0441985
H          -0.1199812    -1.4956271    -1.9651154
H          -0.1929012    -1.3816402    -0.1773626
H           0.9724069    -2.4674687    -0.9373653
O           1.7209889     0.3177225    -2.0275928
17
235_C7H7NO2_0-1-8-6 (180,) energy =    -476.1613715
C           1.6474233    -0.7288697    -1.2009580
O           2.2005624    -0.4239582     0.0321157
C           5.7971587     1.3355900     0.9068398
H           6.7545579     1.8033513     1.1128808
C           4.9344506     0.9520672     1.9390958
H           5.2043638     1.1145705     2.9789252
C           3.7217463     0.3576840     1.6187628
H           3.0119675     0.0394185     2.3741956
C           3.4274475     0.1732746     0.2592158
N           4.2238854     0.5264176    -0.7330837
C           5.3918532     1.0995945    -0.4028257
H           6.0280435     1.3802709    -1.2401274
C           0.2949492    -1.3612467    -0.9583302
H          -0.1579051    -1.6148712    -1.9173103
H          -0.3535960    -0.6693167    -0.4109116
H           0.4024180    -2.2626292    -0.3460494
O           2.1476422    -0.5297163    -2.2724801
