26
446_C11H12N2O_13-7-8-9 (-165,) energy =    -611.0856722
C           5.9123416     1.0250304    -0.2961794
H           6.7906407     1.6259789    -0.5158994
C           5.3780709     1.0034191     0.9967298
H           5.8276574     1.5868625     1.7941583
C           4.2634552     0.2139481     1.2481172
H           3.8270622     0.1629178     2.2412947
C           3.6634143    -0.5495659     0.2366865
C           4.1752037    -0.4953198    -1.0759637
O           3.7203330    -1.1498165    -2.1765595
C           2.4173700    -1.7380302    -2.2404524
H           2.2485748    -1.9289187    -3.3026316
H           1.6518059    -1.0592573    -1.8564694
H           2.3715539    -2.6838690    -1.6921420
C           5.3199643     0.2881645    -1.3116181
H           5.7106914     0.3060861    -2.3240510
C           1.3426804    -3.0691081     1.3271466
H           1.0165387    -4.0370381     1.6810964
C           2.6375963    -2.6990229     1.0101790
C           3.9209603    -3.4672683     1.0499625
H           3.7323119    -4.4851113     1.4013919
H           4.6511886    -3.0035870     1.7235325
H           4.3900153    -3.5309880     0.0605448
N           2.5664326    -1.3896750     0.6073263
N           1.2973668    -0.8926146     0.6652772
C           0.5631323    -1.9145953     1.0953673
H          -0.5037553    -1.7838339     1.2259852
26
446_C11H12N2O_13-7-8-9 (-150,) energy =    -611.0868087
C           5.9081899     1.0164219    -0.2756085
H           6.7913116     1.6075419    -0.5022701
C           5.2751928     1.1432411     0.9652710
H           5.6550795     1.8326993     1.7129475
C           4.1615740     0.3582630     1.2403811
H           3.6612957     0.4111181     2.2023920
C           3.6579485    -0.5400017     0.2910504
C           4.2531366    -0.6178049    -0.9831671
O           3.8590625    -1.4253837    -2.0088325
C           2.4741576    -1.7497603    -2.1937203
H           2.3653965    -1.9524553    -3.2620554
H           1.8285246    -0.9146475    -1.9074724
H           2.1874357    -2.6384412    -1.6249967
C           5.4031503     0.1473031    -1.2347008
H           5.8633234     0.0553916    -2.2134175
C           1.3586849    -3.0959363     1.3321346
H           1.0323072    -4.0832052     1.6276629
C           2.6386594    -2.7271834     0.9577518
C           3.9027958    -3.5197113     0.8464027
H           3.7198192    -4.5531580     1.1523037
H           4.6939922    -3.1100153     1.4854407
H           4.2867135    -3.5297953    -0.1806901
N           2.5734430    -1.3869245     0.6711469
N           1.3243189    -0.8709942     0.8562183
C           0.5951748    -1.9103838     1.2512442
H          -0.4568085    -1.7699666     1.4657477
26
446_C11H12N2O_13-7-8-9 (-135,) energy =    -611.0876670
C           5.8557039     1.0196329    -0.2805165
H           6.7169380     1.6342210    -0.5277143
C           5.2003892     1.1881083     0.9427271
H           5.5437434     1.9320370     1.6552324
C           4.1104378     0.3802485     1.2512226
H           3.5922047     0.4725043     2.2003518
C           3.6583723    -0.5868466     0.3467578
C           4.2795608    -0.7149938    -0.9098822
O           3.9052682    -1.6119343    -1.8732348
C           2.5123778    -1.7226962    -2.2077290
H           2.4833186    -2.0171599    -3.2599077
H           2.0002604    -0.7642647    -2.0785845
H           2.0121845    -2.4837472    -1.6024008
C           5.3968738     0.0793796    -1.1978830
H           5.8724859    -0.0479081    -2.1652235
C           1.3464204    -3.1454414     1.3530711
H           1.0084139    -4.1371788     1.6190892
C           2.6244469    -2.7884771     0.9612369
C           3.8675143    -3.6047523     0.7976427
H           3.6687812    -4.6404348     1.0857538
H           4.6826141    -3.2275827     1.4268900
H           4.2229857    -3.5962341    -0.2388191
N           2.5800000    -1.4355802     0.7320322
N           1.3460034    -0.9030849     0.9703164
C           0.6057858    -1.9427733     1.3416834
H          -0.4372672    -1.7904735     1.5892292
26
446_C11H12N2O_13-7-8-9 (-120,) energy =    -611.0883119
C           5.8207427     1.0412971    -0.2938087
H           6.6700982     1.6659909    -0.5560969
C           5.1689262     1.2175772     0.9290267
H           5.5025923     1.9810813     1.6254097
C           4.0975692     0.3931394     1.2638980
H           3.5859996     0.4936403     2.2156176
C           3.6604701    -0.5986723     0.3808831
C           4.2752427    -0.7333590    -0.8779181
O           3.8998488    -1.6834158    -1.7972224
C           2.5681426    -1.5704890    -2.3217670
H           2.4445458    -2.4175509    -2.9994641
H           2.4601976    -0.6343195    -2.8838211
H           1.8080889    -1.6110991    -1.5374700
C           5.3749207     0.0719432    -1.1898410
H           5.8511793    -0.0695024    -2.1550282
C           1.3709564    -3.1765109     1.3929616
H           1.0353371    -4.1727655     1.6446187
C           2.6390192    -2.8184444     0.9718168
C           3.8706861    -3.6421841     0.7676702
H           3.6784345    -4.6729846     1.0771295
H           4.7110497    -3.2614535     1.3606046
H           4.1829801    -3.6446359    -0.2818522
N           2.5976806    -1.4589237     0.7805288
N           1.3740179    -0.9250540     1.0711042
C           0.6382497    -1.9705274     1.4359910
H          -0.3958622    -1.8183369     1.7187270
26
446_C11H12N2O_13-7-8-9 (-105,) energy =    -611.0888116
C           5.7501874     1.0522496    -0.3151731
H           6.5679071     1.7056557    -0.6063666
C           5.1267358     1.2162956     0.9238018
H           5.4534618     1.9980284     1.6031716
C           4.0889570     0.3641388     1.2963820
H           3.5926056     0.4676074     2.2557017
C           3.6624115    -0.6486784     0.4333278
C           4.2643055    -0.7890383    -0.8293053
O           3.8623940    -1.7673288    -1.7099298
C           2.6301898    -1.4876180    -2.3893850
H           2.4186431    -2.3639639    -3.0054924
H           2.7378203    -0.6043948    -3.0320678
H           1.8095085    -1.3249413    -1.6826577
C           5.3168131     0.0557047    -1.1889099
H           5.7756290    -0.0825404    -2.1631824
C           1.3708199    -3.2206556     1.4582119
H           1.0321136    -4.2148552     1.7138347
C           2.6382228    -2.8697173     1.0293123
C           3.8637850    -3.7013967     0.8226923
H           3.6727336    -4.7254847     1.1545631
H           4.7146465    -3.3131176     1.3954929
H           4.1581970    -3.7239148    -0.2315286
N           2.6027951    -1.5106110     0.8361141
N           1.3821920    -0.9703880     1.1308644
C           0.6435135    -2.0117064     1.5009685
H          -0.3890860    -1.8543848     1.7864556
26
446_C11H12N2O_13-7-8-9 (-90,) energy =    -611.0883962
C           5.6794246     1.0609443    -0.3403205
H           6.4737447     1.7319801    -0.6551859
C           5.0841386     1.2158681     0.9138518
H           5.4097092     2.0089463     1.5805481
C           4.0743538     0.3443822     1.3166602
H           3.5945571     0.4475037     2.2842659
C           3.6474213    -0.6813521     0.4682527
C           4.2313873    -0.8231531    -0.8011438
O           3.8102020    -1.8176344    -1.6560359
C           2.7414447    -1.4254801    -2.5249513
H           2.5078665    -2.2998802    -3.1360128
H           3.0486128    -0.5952734    -3.1740535
H           1.8560125    -1.1286730    -1.9502425
C           5.2503623     0.0468157    -1.1956620
H           5.6935251    -0.0887151    -2.1778050
C           1.3674843    -3.2432992     1.5425438
H           1.0275511    -4.2356411     1.8037428
C           2.6231394    -2.9027112     1.0732874
C           3.8339024    -3.7461816     0.8310342
H           3.6413735    -4.7687135     1.1669625
H           4.7042596    -3.3681319     1.3812657
H           4.0988669    -3.7701456    -0.2306895
N           2.5943155    -1.5423496     0.8868389
N           1.3898132    -0.9917720     1.2262381
C           0.6538618    -2.0275842     1.6149478
H          -0.3676023    -1.8619724     1.9338815
26
446_C11H12N2O_13-7-8-9 (-75,) energy =    -611.0878595
C           5.6024276     1.0757414    -0.3903276
H           6.3816264     1.7524341    -0.7299000
C           5.0485035     1.2231335     0.8837899
H           5.3891296     2.0174822     1.5413701
C           4.0621759     0.3409528     1.3177397
H           3.6131999     0.4380945     2.3004807
C           3.6125038    -0.6862105     0.4814748
C           4.1544626    -0.8202605    -0.8070745
O           3.7080690    -1.8251211    -1.6358935
C           2.8562899    -1.3893738    -2.6989155
H           2.6056530    -2.2826779    -3.2747808
H           3.3651942    -0.6671848    -3.3497583
H           1.9391059    -0.9361774    -2.3033532
C           5.1561752     0.0577800    -1.2310458
H           5.5771156    -0.0727786    -2.2237528
C           1.3733173    -3.2492261     1.6367519
H           1.0389307    -4.2424320     1.9019011
C           2.6028358    -2.9125894     1.1003661
C           3.7892353    -3.7655585     0.7827717
H           3.6159471    -4.7825839     1.1450424
H           4.6980312    -3.3856047     1.2653677
H           3.9799668    -3.8045002    -0.2941450
N           2.5772066    -1.5488929     0.9370032
N           1.4012661    -0.9932031     1.3579272
C           0.6782956    -2.0281011     1.7714070
H          -0.3208088    -1.8580716     2.1527788
26
446_C11H12N2O_13-7-8-9 (-60,) energy =    -611.0876821
C           5.5431545     1.1032496    -0.3819336
H           6.3115964     1.7856582    -0.7344580
C           5.0311173     1.2273825     0.9115704
H           5.3907844     2.0107700     1.5719943
C           4.0614239     0.3339209     1.3589435
H           3.6429136     0.4105204     2.3567795
C           3.5852565    -0.6779031     0.5190040
C           4.0811532    -0.7850872    -0.7916584
O           3.6021864    -1.7869409    -1.6013951
C           2.9974126    -1.3687607    -2.8257911
H           2.6214672    -2.2768271    -3.3014427
H           3.7187625    -0.8857088    -3.4963293
H           2.1644805    -0.6816278    -2.6345401
C           5.0732968     0.0999119    -1.2271216
H           5.4712784    -0.0050850    -2.2318377
C           1.3870975    -3.2591009     1.7122880
H           1.0608761    -4.2565952     1.9715024
C           2.5940262    -2.9149614     1.1312955
C           3.7646257    -3.7651886     0.7532854
H           3.6039302    -4.7868560     1.1082875
H           4.6929920    -3.3935025     1.2041394
H           3.9126043    -3.7900699    -0.3306793
N           2.5664710    -1.5482590     0.9960135
N           1.4118528    -0.9982181     1.4782530
C           0.7030509    -2.0389981     1.9010281
H          -0.2783193    -1.8737391     2.3278614
26
446_C11H12N2O_13-7-8-9 (-45,) energy =    -611.0883044
C           5.4834876     1.1162857    -0.3805466
H           6.2412490     1.8032873    -0.7471536
C           5.0225765     1.2132198     0.9331246
H           5.4099352     1.9798069     1.5974123
C           4.0645045     0.3128352     1.3937192
H           3.6823033     0.3675480     2.4074856
C           3.5524396    -0.6764333     0.5503558
C           3.9939424    -0.7527654    -0.7836334
O           3.4725297    -1.7411261    -1.5759010
C           3.1175016    -1.3859236    -2.9109912
H           2.5019126    -2.2061563    -3.2858437
H           3.9989544    -1.2812187    -3.5563932
H           2.5409989    -0.4538781    -2.9290470
C           4.9782700     0.1350642    -1.2326480
H           5.3384210     0.0622631    -2.2537589
C           1.3898816    -3.2741015     1.7728906
H           1.0713653    -4.2753291     2.0273021
C           2.5793670    -2.9211224     1.1620763
C           3.7383078    -3.7649155     0.7366508
H           3.5892438    -4.7917530     1.0816713
H           4.6800211    -3.3987248     1.1636842
H           3.8529032    -3.7749371    -0.3516639
N           2.5475027    -1.5530478     1.0454965
N           1.4074675    -1.0102171     1.5682221
C           0.7115137    -2.0569604     1.9976858
H          -0.2568630    -1.8978868     2.4554295
26
446_C11H12N2O_13-7-8-9 (-30,) energy =    -611.0894863
C           5.4377887     1.1421179    -0.3766955
H           6.1851672     1.8344607    -0.7544359
C           5.0258125     1.2111422     0.9536650
H           5.4402739     1.9595847     1.6221378
C           4.0780824     0.3042006     1.4250004
H           3.7310865     0.3363667     2.4523201
C           3.5321858    -0.6621946     0.5787272
C           3.9239480    -0.7088083    -0.7738942
O           3.3524484    -1.6706772    -1.5577374
C           3.2293619    -1.4064179    -2.9514143
H           2.5325075    -2.1533137    -3.3364667
H           4.1889793    -1.5125851    -3.4738537
H           2.8286444    -0.4013321    -3.1283243
C           4.8969363     0.1851894    -1.2361925
H           5.2204639     0.1437730    -2.2706155
C           1.4026302    -3.2775431     1.8221863
H           1.0906260    -4.2825868     2.0696031
C           2.5729053    -2.9150721     1.1805633
C           3.7156362    -3.7523415     0.7020392
H           3.5879770    -4.7805525     1.0515033
H           4.6738938    -3.3814114     1.0857169
H           3.7806325    -3.7606781    -0.3905109
N           2.5396631    -1.5452765     1.0880565
N           1.4169678    -1.0106900     1.6545736
C           0.7332675    -2.0637792     2.0883169
H          -0.2199726    -1.9115352     2.5789729
26
446_C11H12N2O_13-7-8-9 (-15,) energy =    -611.0903717
C           5.3964652     1.1610915    -0.3797507
H           6.1357352     1.8564967    -0.7677544
C           5.0303827     1.2033141     0.9639906
H           5.4736955     1.9324014     1.6352152
C           4.0888813     0.2936483     1.4445214
H           3.7753737     0.3045769     2.4830112
C           3.5084017    -0.6483558     0.5958433
C           3.8564981    -0.6699923    -0.7708580
O           3.2293448    -1.5970700    -1.5501490
C           3.3133639    -1.4567573    -2.9619971
H           2.6253060    -2.1965249    -3.3747241
H           4.3266260    -1.6624247    -3.3312620
H           3.0077031    -0.4525778    -3.2805611
C           4.8181941     0.2300886    -1.2448986
H           5.1069718     0.2184193    -2.2896518
C           1.3976401    -3.2716141     1.8551919
H           1.0863066    -4.2789420     2.0940584
C           2.5505360    -2.9050215     1.1853082
C           3.6715903    -3.7405219     0.6554737
H           3.5618892    -4.7693242     1.0092616
H           4.6457811    -3.3679381     0.9945117
H           3.6863792    -3.7488507    -0.4391064
N           2.5234434    -1.5336852     1.1166160
N           1.4221734    -1.0021993     1.7260030
C           0.7447799    -2.0584673     2.1618754
H          -0.1923220    -1.9088427     2.6834084
26
446_C11H12N2O_13-7-8-9 (0,) energy =    -611.0905107
C           5.3688376     1.2050815    -0.3812973
H           6.1034380     1.9017640    -0.7758314
C           5.0371218     1.2255590     0.9714156
H           5.5053658     1.9368509     1.6447647
C           4.0973650     0.3169679     1.4579175
H           3.8097000     0.3109197     2.5038494
C           3.4876982    -0.6037954     0.6070600
C           3.8044550    -0.6065868    -0.7681268
O           3.1259794    -1.4943462    -1.5487926
C           3.3968476    -1.5115331    -2.9427882
H           2.7398967    -2.2752428    -3.3621637
H           4.4421469    -1.7765992    -3.1481846
H           3.1703228    -0.5432494    -3.4069873
C           4.7584862     0.2975958    -1.2499461
H           5.0180903     0.3091333    -2.3020451
C           1.3802010    -3.2279879     1.8704131
H           1.0624529    -4.2364196     2.0958782
C           2.5150788    -2.8609771     1.1705090
C           3.6016611    -3.6997371     0.5778405
H           3.5513990    -4.7121824     0.9881058
H           4.5933637    -3.2907174     0.8036403
H           3.5142939    -3.7634109    -0.5118615
N           2.5060721    -1.4880446     1.1359759
N           1.4341059    -0.9568659     1.7954294
C           0.7559484    -2.0139698     2.2281617
H          -0.1605225    -1.8642008     2.7850744
26
446_C11H12N2O_13-7-8-9 (15,) energy =    -611.0897893
C           5.3448645     1.2365478    -0.3784973
H           6.0711889     1.9413565    -0.7739466
C           5.0474708     1.2218843     0.9825675
H           5.5378255     1.9117968     1.6624022
C           4.1137425     0.3071849     1.4684733
H           3.8520342     0.2754755     2.5207131
C           3.4777896    -0.5884904     0.6093213
C           3.7641225    -0.5604345    -0.7718867
O           3.0431588    -1.4026232    -1.5659170
C           3.4691517    -1.5908915    -2.9084212
H           2.8379658    -2.3845557    -3.3119019
H           4.5222127    -1.8962237    -2.9563033
H           3.3279427    -0.6824775    -3.5081267
C           4.7056277     0.3566815    -1.2540583
H           4.9317238     0.3983776    -2.3133017
C           1.3867300    -3.2280027     1.8684484
H           1.0669692    -4.2393061     2.0776734
C           2.4998406    -2.8520291     1.1391363
C           3.5557332    -3.6852053     0.4864319
H           3.5200148    -4.7036243     0.8832467
H           4.5581780    -3.2829171     0.6733445
H           3.4189231    -3.7341256    -0.5990579
N           2.5027781    -1.4785361     1.1408934
N           1.4597663    -0.9562769     1.8516068
C           0.7867451    -2.0186055     2.2793091
H          -0.1086180    -1.8758181     2.8712351
26
446_C11H12N2O_13-7-8-9 (30,) energy =    -611.0882582
C           5.3383767     1.3290103    -0.3553948
H           6.0579716     2.0434720    -0.7456518
C           5.0661942     1.2805947     1.0113162
H           5.5717061     1.9513845     1.6992639
C           4.1378770     0.3593052     1.4920095
H           3.8955362     0.3036742     2.5477820
C           3.4823720    -0.5145915     0.6226283
C           3.7467710    -0.4561090    -0.7605683
O           2.9947254    -1.2529800    -1.5759109
C           3.5498801    -1.6327058    -2.8300065
H           2.9105627    -2.4311735    -3.2117492
H           4.5769727    -2.0012209    -2.7169979
H           3.5410119    -0.8015180    -3.5469216
C           4.6775321     0.4746177    -1.2381615
H           4.8755880     0.5415853    -2.3023579
C           1.3920923    -3.1654183     1.8607463
H           1.0632440    -4.1782795     2.0471082
C           2.4854458    -2.7820402     1.1057999
C           3.5019401    -3.6114830     0.3889106
H           3.5054291    -4.6261483     0.7971956
H           4.5105474    -3.1975345     0.5003351
H           3.2888110    -3.6768698    -0.6834541
N           2.5117691    -1.4095981     1.1536149
N           1.5024438    -0.8964279     1.9174264
C           0.8263805    -1.9618615     2.3322828
H          -0.0458158    -1.8253436     2.9592019
26
446_C11H12N2O_13-7-8-9 (45,) energy =    -611.0861318
C           5.4208238     1.1962894    -0.2647533
H           6.2424187     1.8134278    -0.6177768
C           5.0684526     1.1972128     1.0853549
H           5.6152127     1.8079518     1.7973960
C           4.0048561     0.4092160     1.5175471
H           3.6959524     0.4028426     2.5571381
C           3.2929457    -0.3880107     0.6167189
C           3.6447382    -0.3854565    -0.7470703
O           2.8439750    -1.0721743    -1.6199070
C           3.4871168    -1.7766114    -2.6789257
H           2.7290039    -2.4358623    -3.1070694
H           4.3299297    -2.3722066    -2.3080267
H           3.8439978    -1.0982121    -3.4644793
C           4.7056257     0.4213586    -1.1761056
H           4.9601865     0.4507115    -2.2305785
C           0.7729054    -2.6910255     1.7511938
H           0.2868051    -3.6414593     1.9219798
C           1.9464915    -2.4824861     1.0498401
C           2.8567575    -3.4645144     0.3846757
H           2.7727426    -4.4390216     0.8748921
H           3.9034083    -3.1466133     0.4421899
H           2.6071416    -3.5988253    -0.6734540
N           2.1786518    -1.1297925     1.1000254
N           1.2229073    -0.4653374     1.8147171
C           0.3740630    -1.4130798     2.1958663
H          -0.4963660    -1.1418930     2.7799707
26
446_C11H12N2O_13-7-8-9 (60,) energy =    -611.0835143
C           5.3934181     1.2550465    -0.2693679
H           6.1911738     1.9072974    -0.6138210
C           5.0919820     1.1697561     1.0913200
H           5.6572204     1.7450190     1.8184454
C           4.0479234     0.3519043     1.5132559
H           3.7695554     0.2926477     2.5599441
C           3.3092608    -0.3998948     0.5929461
C           3.6234423    -0.3269505    -0.7767856
O           2.8087665    -0.9573700    -1.6843101
C           3.4494040    -1.8298022    -2.6144831
H           2.6480061    -2.3639869    -3.1296258
H           4.1049178    -2.5466602    -2.1074002
H           4.0367378    -1.2748646    -3.3577142
C           4.6521210     0.5257469    -1.1958845
H           4.8564699     0.6202719    -2.2580249
C           0.7722026    -2.6905434     1.7258391
H           0.2806133    -3.6371957     1.9019576
C           1.9553903    -2.4937511     1.0371679
C           2.8706781    -3.4882945     0.3984049
H           2.7975801    -4.4480805     0.9185944
H           3.9149431    -3.1606336     0.4406509
H           2.6157983    -3.6621761    -0.6528939
N           2.1924625    -1.1423730     1.0739645
N           1.2289543    -0.4657497     1.7668297
C           0.3722208    -1.4060011     2.1490096
H          -0.5043833    -1.1245991     2.7188447
26
446_C11H12N2O_13-7-8-9 (75,) energy =    -611.0825633
C           5.5132773     1.0515943    -0.3068602
H           6.3698131     1.6453406    -0.6140795
C           5.3571399     0.6859037     1.0316803
H           6.0880828     0.9925398     1.7739620
C           4.2430400    -0.0573674     1.4183360
H           4.0880406    -0.3263424     2.4589558
C           3.2941142    -0.4572297     0.4734293
C           3.4533515    -0.0920812    -0.8745314
O           2.4973805    -0.4417570    -1.7928092
C           2.8700239    -1.4803275    -2.6955072
H           2.0258278    -1.6111286    -3.3754979
H           3.0553933    -2.4221834    -2.1617903
H           3.7653222    -1.2158472    -3.2740872
C           4.5636994     0.6690608    -1.2531683
H           4.6623426     0.9648833    -2.2935573
C           0.8293547    -2.8282229     1.5723474
H           0.4384049    -3.7738157     1.9212080
C           2.1509409    -2.5375654     1.2890714
C           3.3775665    -3.3925512     1.3602513
H           3.0935294    -4.4223082     1.5933619
H           4.0772250    -3.0548482     2.1343139
H           3.9273420    -3.3996933     0.4112884
N           2.1653046    -1.2264268     0.8797663
N           0.9248111    -0.6622002     0.8844936
C           0.1235243    -1.6338798     1.3058471
H          -0.9373033    -1.4410452     1.4045833
26
446_C11H12N2O_13-7-8-9 (90,) energy =    -611.0826231
C           5.7600678     0.9539176    -0.4562164
H           6.6259905     1.5365493    -0.7581494
C           5.5858696     0.5967499     0.8818163
H           6.3103962     0.9020468     1.6309797
C           4.4623101    -0.1366308     1.2612588
H           4.2952409    -0.3951202     2.3025843
C           3.5193438    -0.5347447     0.3096166
C           3.6957521    -0.1760571    -1.0391017
O           2.7651967    -0.5190542    -1.9868092
C           3.0053004    -1.7630086    -2.6417459
H           2.2103054    -1.8775687    -3.3814768
H           2.9638357    -2.6018728    -1.9347385
H           3.9802303    -1.7666827    -3.1484525
C           4.8177985     0.5695815    -1.4098491
H           4.9276248     0.8481715    -2.4537483
C           1.0392746    -2.8580207     1.4752689
H           0.6455540    -3.7787960     1.8825210
C           2.3687619    -2.5658502     1.2349231
C           3.6017000    -3.3894110     1.4437490
H           3.3197201    -4.4277222     1.6390585
H           4.1980636    -3.0412147     2.2960317
H           4.2567764    -3.3746272     0.5650845
N           2.3827749    -1.2945100     0.7108281
N           1.1340937    -0.7576874     0.6060751
C           0.3289666    -1.7057040     1.0705568
H          -0.7385278    -1.5272284     1.0989210
26
446_C11H12N2O_13-7-8-9 (105,) energy =    -611.0831317
C           5.7975226     0.9823551    -0.4449566
H           6.6635949     1.5731118    -0.7301877
C           5.6212954     0.5876521     0.8818293
H           6.3421963     0.8740520     1.6418406
C           4.4993490    -0.1605012     1.2361377
H           4.3299112    -0.4459923     2.2699055
C           3.5583158    -0.5348905     0.2729382
C           3.7363846    -0.1375931    -1.0666298
O           2.8250158    -0.4392841    -2.0443810
C           2.8510795    -1.7836239    -2.5230886
H           2.1131253    -1.8325262    -3.3263881
H           2.5760885    -2.4996253    -1.7395958
H           3.8423285    -2.0399890    -2.9213666
C           4.8597953     0.6187285    -1.4108662
H           4.9722692     0.9184149    -2.4483019
C           1.0803551    -2.8856972     1.3899895
H           0.6888821    -3.8076522     1.7966741
C           2.4127996    -2.5699709     1.2014485
C           3.6497484    -3.3698300     1.4702972
H           3.3768737    -4.4117863     1.6591160
H           4.2013211    -3.0075178     2.3463172
H           4.3424473    -3.3477800     0.6213287
N           2.4235998    -1.3061259     0.6569229
N           1.1690244    -0.7992134     0.4888224
C           0.3640290    -1.7557461     0.9354891
H          -0.7070875    -1.5990542     0.9165208
26
446_C11H12N2O_13-7-8-9 (120,) energy =    -611.0838619
C           5.8193583     1.0157531    -0.4206422
H           6.6816694     1.6203040    -0.6877772
C           5.6329653     0.6009047     0.8989424
H           6.3391893     0.8856975     1.6730859
C           4.5169471    -0.1666840     1.2250645
H           4.3348915    -0.4657115     2.2528040
C           3.5916253    -0.5416650     0.2457312
C           3.7824374    -0.1283994    -1.0887604
O           2.9145304    -0.4114680    -2.1062660
C           2.6970168    -1.7861998    -2.4297129
H           2.1778854    -1.7843474    -3.3906834
H           2.0710615    -2.2890350    -1.6864378
H           3.6514423    -2.3184516    -2.5353217
C           4.9020469     0.6494402    -1.4031443
H           5.0275174     0.9565896    -2.4366585
C           1.1134537    -2.9102587     1.3264206
H           0.7218364    -3.8322283     1.7328928
C           2.4470513    -2.5785873     1.1754967
C           3.6836232    -3.3636617     1.4853710
H           3.4168471    -4.4088330     1.6648490
H           4.2013950    -2.9954751     2.3792809
H           4.4030858    -3.3320797     0.6594691
N           2.4586804    -1.3206575     0.6183180
N           1.2031755    -0.8340159     0.4025702
C           0.3963771    -1.7961409     0.8356847
H          -0.6755972    -1.6539417     0.7818507
26
446_C11H12N2O_13-7-8-9 (135,) energy =    -611.0846293
C           5.8243806     1.0677183    -0.4122282
H           6.6738883     1.6961730    -0.6651038
C           5.6171289     0.6616353     0.9082536
H           6.2930389     0.9768118     1.6973654
C           4.5170866    -0.1355335     1.2098085
H           4.3117190    -0.4285348     2.2350879
C           3.6287334    -0.5510240     0.2108595
C           3.8457776    -0.1549202    -1.1250860
O           3.0465407    -0.4709554    -2.1820834
C           2.6009461    -1.8190028    -2.3513056
H           2.3444036    -1.9110679    -3.4095047
H           1.7177464    -2.0313798    -1.7439133
H           3.4011573    -2.5306583    -2.1129395
C           4.9497045     0.6597002    -1.4138369
H           5.0976623     0.9539934    -2.4480036
C           1.1627976    -2.9218100     1.3197077
H           0.7764273    -3.8443633     1.7298150
C           2.4937351    -2.5994773     1.1272900
C           3.7355421    -3.3922101     1.3921728
H           3.4685954    -4.4312110     1.6038168
H           4.2994073    -3.0112248     2.2520643
H           4.4150089    -3.3826760     0.5322068
N           2.4988876    -1.3386421     0.5808177
N           1.2417030    -0.8363847     0.4145323
C           0.4402370    -1.7970603     0.8639595
H          -0.6316415    -1.6452308     0.8458218
26
446_C11H12N2O_13-7-8-9 (150,) energy =    -611.0849490
C           5.8427811     1.0880926    -0.3922079
H           6.6842129     1.7327222    -0.6311997
C           5.5843890     0.7279600     0.9337748
H           6.2115244     1.0932701     1.7411685
C           4.4938680    -0.0881780     1.2096955
H           4.2441540    -0.3489222     2.2340566
C           3.6641509    -0.5708586     0.1882354
C           3.9360992    -0.2247526    -1.1518211
O           3.2270932    -0.5915446    -2.2519432
C           2.5452575    -1.8456995    -2.3143406
H           2.3586213    -2.0161031    -3.3772485
H           1.5967613    -1.8155215    -1.7740005
H           3.1725232    -2.6569709    -1.9261071
C           5.0303490     0.6166538    -1.4149385
H           5.2200849     0.8757366    -2.4516584
C           1.2180657    -2.9423479     1.3420715
H           0.8413073    -3.8639197     1.7631404
C           2.5430707    -2.6270408     1.1016097
C           3.7909700    -3.4249144     1.3162535
H           3.5294300    -4.4308249     1.6553119
H           4.4480977    -2.9755583     2.0697116
H           4.3780274    -3.5187060     0.3945449
N           2.5368762    -1.3655846     0.5593811
N           1.2779445    -0.8515239     0.4474627
C           0.4869173    -1.8103706     0.9202745
H          -0.5839002    -1.6516461     0.9422308
26
446_C11H12N2O_13-7-8-9 (165,) energy =    -611.0849371
C           5.8635500     1.0766504    -0.3585721
H           6.7119716     1.7170507    -0.5839206
C           5.5255323     0.7937528     0.9689682
H           6.0972538     1.2130949     1.7910004
C           4.4301299    -0.0213677     1.2210677
H           4.1216678    -0.2352287     2.2403778
C           3.6683428    -0.5758747     0.1814938
C           4.0152494    -0.2996574    -1.1579609
O           3.4035556    -0.7297671    -2.2910433
C           2.4764992    -1.8160819    -2.3083384
H           2.2999009    -2.0151238    -3.3676267
H           1.5379871    -1.5515997    -1.8168764
H           2.9012521    -2.7115394    -1.8409282
C           5.1199319     0.5388806    -1.3985479
H           5.3699239     0.7425223    -2.4348855
C           1.2560210    -2.9716845     1.3563361
H           0.8948446    -3.8989531     1.7785475
C           2.5723643    -2.6477394     1.0812540
C           3.8325727    -3.4344560     1.2613081
H           3.5912726    -4.4412999     1.6123632
H           4.5062911    -2.9733075     1.9928708
H           4.3935895    -3.5264280     0.3233755
N           2.5461263    -1.3826762     0.5496756
N           1.2827941    -0.8703670     0.4851233
C           0.5090076    -1.8380801     0.9687984
H          -0.5614532    -1.6844709     1.0224398
26
446_C11H12N2O_13-7-8-9 (180,) energy =    -611.0850921
C           5.8831601     1.0463601    -0.3473723
H           6.7479863     1.6661263    -0.5681543
C           5.4527702     0.8793738     0.9733978
H           5.9690425     1.3678812     1.7938826
C           4.3446045     0.0800382     1.2182596
H           3.9743086    -0.0627687     2.2293674
C           3.6541781    -0.5636768     0.1799445
C           4.0804704    -0.3863186    -1.1532404
O           3.5523912    -0.9098401    -2.2887073
C           2.4069616    -1.7638259    -2.3034947
H           2.2285996    -1.9688831    -3.3612245
H           1.5354582    -1.2737613    -1.8637509
H           2.5991238    -2.7070530    -1.7816535
C           5.2075127     0.4254294    -1.3867449
H           5.5243243     0.5470078    -2.4176969
C           1.2835792    -3.0050479     1.3444810
H           0.9400108    -3.9455422     1.7518976
C           2.5904258    -2.6614590     1.0479362
C           3.8648018    -3.4329515     1.1888484
H           3.6464794    -4.4470611     1.5339740
H           4.5469913    -2.9682143     1.9104689
H           4.4057159    -3.5061537     0.2377108
N           2.5409007    -1.3840162     0.5494260
N           1.2724683    -0.8810696     0.5293690
C           0.5183297    -1.8683499     1.0041583
H          -0.5519270    -1.7262203     1.0862074
