26
446_C11H12N2O_4-6-22-17 (-165,) energy =    -611.0824733
C           5.3325416     1.3132323    -0.3209974
H           6.0081202     2.0562735    -0.7353709
C           4.8422149     1.4431119     0.9758218
H           5.1147304     2.2964905     1.5892792
C           3.9912572     0.4687322     1.4894301
H           3.5910050     0.5531884     2.4917957
C           3.6382157    -0.6614719     0.7425019
C           4.0553498    -0.7352413    -0.6068135
O           3.5378540    -1.7357429    -1.3763404
C           3.8437360    -1.7612532    -2.7614957
H           3.2744146    -2.5960139    -3.1746400
H           4.9137790    -1.9315624    -2.9381927
H           3.5378084    -0.8313411    -3.2572269
C           4.9344041     0.2341030    -1.1081507
H           5.2845686     0.1643585    -2.1310864
C           1.1691417    -3.1121639     1.7134651
H           0.6360201    -4.0522307     1.7452456
C           2.3417720    -2.8643967     1.0254617
C           3.2028931    -3.8714124     0.3204097
H           3.1025851    -4.8379634     0.8252563
H           4.2578823    -3.5872889     0.3407779
H           2.9188745    -4.0038097    -0.7269406
N           2.6990902    -1.5651873     1.3340174
N           1.7708044    -0.9754060     2.1601732
C           0.8674752    -1.9143444     2.3910879
H           0.0293119    -1.6956220     3.0410505
26
446_C11H12N2O_4-6-22-17 (-150,) energy =    -611.0869490
C           5.3778742     1.2445617    -0.2878485
H           6.0864496     1.9669400    -0.6833485
C           4.9067268     1.3584295     1.0178442
H           5.2305989     2.1756465     1.6550350
C           4.0118946     0.4105477     1.5080406
H           3.6226854     0.4789848     2.5170754
C           3.5910731    -0.6652176     0.7210010
C           4.0034958    -0.7282873    -0.6294721
O           3.4398528    -1.6938745    -1.4106173
C           3.7479186    -1.7130323    -2.7959922
H           3.1453107    -2.5172637    -3.2218198
H           4.8106344    -1.9245219    -2.9724392
H           3.4819767    -0.7641574    -3.2786990
C           4.9256567     0.2109836    -1.1083725
H           5.2698087     0.1563801    -2.1344089
C           1.2115182    -3.1827313     1.7239555
H           0.7498564    -4.1568785     1.8061917
C           2.3941478    -2.8909501     1.0695041
C           3.3661460    -3.8394091     0.4361892
H           3.3149965    -4.8047705     0.9498335
H           4.3935358    -3.4706531     0.5111530
H           3.1543013    -4.0039097    -0.6239192
N           2.6171761    -1.5464952     1.2738895
N           1.6142199    -0.9686770     2.0088424
C           0.7790854    -1.9618406     2.2801812
H          -0.1068919    -1.7628967     2.8701872
26
446_C11H12N2O_4-6-22-17 (-135,) energy =    -611.0896391
C           5.4278621     1.1823255    -0.2797779
H           6.1711552     1.8785047    -0.6584335
C           4.9747751     1.2795393     1.0338238
H           5.3520129     2.0551547     1.6931728
C           4.0314865     0.3663367     1.5013004
H           3.6529093     0.4202928     2.5159113
C           3.5403658    -0.6468272     0.6760895
C           3.9547728    -0.7058580    -0.6727513
O           3.3541578    -1.6408937    -1.4632286
C           3.6638597    -1.6557880    -2.8488760
H           3.0334019    -2.4328040    -3.2844822
H           4.7187466    -1.9029740    -3.0258385
H           3.4329891    -0.6924127    -3.3207913
C           4.9208178     0.1985921    -1.1304405
H           5.2626107     0.1548887    -2.1578244
C           1.2390566    -3.1922609     1.7682964
H           0.8382614    -4.1843143     1.9229814
C           2.4207409    -2.8775393     1.1221579
C           3.4649976    -3.7860203     0.5534487
H           3.3891244    -4.7697557     1.0260641
H           4.4736730    -3.3993609     0.7357457
H           3.3549382    -3.9125585    -0.5276052
N           2.5334199    -1.5085713     1.1929563
N           1.4799199    -0.9359485     1.8513118
C           0.7052960    -1.9580382     2.1936058
H          -0.2122270    -1.7690774     2.7367161
26
446_C11H12N2O_4-6-22-17 (-120,) energy =    -611.0905566
C           5.4365197     1.1185284    -0.2579265
H           6.2056780     1.7929391    -0.6242940
C           5.0075227     1.1951918     1.0651635
H           5.4321960     1.9296575     1.7425166
C           4.0262183     0.3131422     1.5170072
H           3.6633562     0.3508243     2.5386192
C           3.4705726    -0.6365847     0.6607713
C           3.8841427    -0.6939700    -0.6871263
O           3.2603716    -1.6115823    -1.4793357
C           3.5603853    -1.6199742    -2.8676813
H           2.9089847    -2.3776511    -3.3062677
H           4.6081026    -1.8898859    -3.0539786
H           3.3490900    -0.6466685    -3.3281189
C           4.8816257     0.1816498    -1.1324069
H           5.2180800     0.1479576    -2.1620357
C           1.2443305    -3.1905034     1.8632921
H           0.8987754    -4.1865263     2.1025319
C           2.4329880    -2.8617520     1.2377703
C           3.5526292    -3.7331404     0.7660101
H           3.4230831    -4.7444431     1.1612458
H           4.5250123    -3.3580075     1.1068688
H           3.5877765    -3.7896085    -0.3267453
N           2.4439340    -1.4910565     1.1517291
N           1.3317791    -0.9244757     1.7073777
C           0.6103347    -1.9576366     2.1274935
H          -0.3434713    -1.7777883     2.6075117
26
446_C11H12N2O_4-6-22-17 (-105,) energy =    -611.0899341
C           5.4707051     1.0546503    -0.2633846
H           6.2588824     1.7162438    -0.6125309
C           5.0829101     1.0726821     1.0744734
H           5.5614517     1.7450165     1.7798235
C           4.0710947     0.2120690     1.5026540
H           3.7380231     0.2067142     2.5355473
C           3.4433327    -0.6487395     0.6054342
C           3.8373338    -0.6682782    -0.7484561
O           3.1823945    -1.5481143    -1.5558582
C           3.4754363    -1.5351016    -2.9456558
H           2.8095622    -2.2735279    -3.3950374
H           4.5178012    -1.8184210    -3.1420392
H           3.2779534    -0.5500019    -3.3868935
C           4.8576308     0.1906639    -1.1740283
H           5.1739909     0.1950140    -2.2105970
C           1.2657422    -3.2061705     1.8733909
H           0.9595912    -4.1965628     2.1801564
C           2.4705289    -2.8606475     1.2897309
C           3.6595736    -3.6903842     0.9253693
H           3.5238809    -4.7125505     1.2888829
H           4.5824160    -3.2933611     1.3655043
H           3.8020735    -3.7275842    -0.1606196
N           2.4038990    -1.5091352     1.0636626
N           1.2313935    -0.9626951     1.5001439
C           0.5452587    -1.9961432     1.9765389
H          -0.4465030    -1.8336357     2.3797526
26
446_C11H12N2O_4-6-22-17 (-90,) energy =    -611.0886788
C           5.5026760     0.9625084    -0.3114087
H           6.2900595     1.6182927    -0.6733017
C           5.2150735     0.9018645     1.0501923
H           5.7709395     1.5062167     1.7602820
C           4.1968272     0.0553176     1.4935061
H           3.9375138    -0.0053240     2.5461354
C           3.4726512    -0.7169727     0.5899308
C           3.7731130    -0.6655488    -0.7870835
O           3.0397536    -1.4794147    -1.5910774
C           3.2553806    -1.4159964    -2.9930973
H           2.5462322    -2.1188510    -3.4330988
H           4.2775490    -1.7162195    -3.2590027
H           3.0598682    -0.4091572    -3.3834735
C           4.7917991     0.1866208    -1.2305539
H           5.0363662     0.2486329    -2.2846025
C           1.2889073    -3.2665869     1.8660494
H           1.0006725    -4.2397955     2.2381695
C           2.5481254    -2.8872072     1.4384779
C           3.8279645    -3.6536508     1.3318521
H           3.6926599    -4.6604880     1.7359953
H           4.6432344    -3.1722005     1.8849211
H           4.1518807    -3.7478450     0.2880458
N           2.4337180    -1.5769625     1.0539488
N           1.1714683    -1.0880732     1.2196552
C           0.4849757    -2.1163490     1.7076715
H          -0.5674149    -1.9932470     1.9311613
26
446_C11H12N2O_4-6-22-17 (-75,) energy =    -611.0882269
C           5.5325602     0.8925220    -0.3497425
H           6.3202580     1.5524798    -0.7032297
C           5.3157380     0.7322716     1.0166089
H           5.9255838     1.2646962     1.7398338
C           4.2910016    -0.1127194     1.4481265
H           4.0807518    -0.2395802     2.5059937
C           3.4994903    -0.7970341     0.5298808
C           3.7283189    -0.6456588    -0.8547906
O           2.9324559    -1.3737323    -1.6777735
C           3.0837627    -1.2140957    -3.0799515
H           2.3353516    -1.8657256    -3.5334782
H           4.0836139    -1.5191768    -3.4163967
H           2.8980141    -0.1772242    -3.3879794
C           4.7475921     0.2129729    -1.2847901
H           4.9383288     0.3504832    -2.3427834
C           1.3035286    -3.3335979     1.8121742
H           1.0188216    -4.2786057     2.2532665
C           2.5892566    -2.9084657     1.5330032
C           3.9097621    -3.5882176     1.7149340
H           3.7538082    -4.5935718     2.1153569
H           4.5647171    -3.0472036     2.4082523
H           4.4501736    -3.6817701     0.7651864
N           2.4586195    -1.6589066     0.9823610
N           1.1583653    -1.2593678     0.8892111
C           0.4668384    -2.2752972     1.3937483
H          -0.6129876    -2.2101835     1.4419110
26
446_C11H12N2O_4-6-22-17 (-60,) energy =    -611.0877306
C           5.5712279     0.8534792    -0.3778151
H           6.3641576     1.5169980    -0.7122116
C           5.3843579     0.6150877     0.9810397
H           6.0224829     1.0896819     1.7200030
C           4.3502402    -0.2305188     1.3877080
H           4.1617843    -0.4065144     2.4423884
C           3.5182447    -0.8426742     0.4532453
C           3.7219481    -0.6181677    -0.9270928
O           2.9033891    -1.2875192    -1.7761039
C           3.0264273    -1.0444367    -3.1685111
H           2.2576801    -1.6560669    -3.6432678
H           4.0134692    -1.3429879    -3.5464751
H           2.8504142     0.0119237    -3.4086634
C           4.7477332     0.2460946    -1.3291594
H           4.9173896     0.4387284    -2.3820712
C           1.3115349    -3.3097946     1.8468900
H           1.0215684    -4.2050790     2.3789165
C           2.6020697    -2.8760731     1.6076342
C           3.9179633    -3.4922130     1.9680482
H           3.7561841    -4.5093008     2.3356867
H           4.4439549    -2.9347493     2.7525113
H           4.5893184    -3.5458943     1.1034619
N           2.4785194    -1.7143337     0.8845579
N           1.1765518    -1.3753375     0.6592548
C           0.4785474    -2.3436902     1.2401087
H          -0.6032467    -2.3138853     1.2029606
26
446_C11H12N2O_4-6-22-17 (-45,) energy =    -611.0864726
C           5.6074371     0.8283653    -0.3999623
H           6.3951525     1.5040631    -0.7217845
C           5.4598645     0.5132014     0.9472261
H           6.1244381     0.9385402     1.6928785
C           4.4306394    -0.3456926     1.3383108
H           4.2747989    -0.5706395     2.3882531
C           3.5574094    -0.8945420     0.4010406
C           3.7299234    -0.6013124    -0.9729427
O           2.8947116    -1.2258119    -1.8391820
C           2.9978361    -0.9216968    -3.2206114
H           2.2233446    -1.5138496    -3.7105408
H           3.9799095    -1.2007990    -3.6256759
H           2.8162724     0.1436880    -3.4123756
C           4.7488975     0.2790773    -1.3556163
H           4.8891981     0.5253608    -2.4015686
C           1.3498685    -3.2897158     1.9112482
H           1.0519390    -4.1293348     2.5236343
C           2.6416344    -2.8542237     1.6865634
C           3.9420365    -3.4145661     2.1759916
H           3.7993235    -4.4566763     2.4765629
H           4.3365629    -2.8739565     3.0452878
H           4.7121131    -3.3865933     1.3981925
N           2.5352216    -1.7943589     0.8137722
N           1.2356996    -1.5119296     0.5002272
C           0.5294066    -2.4223700     1.1564358
H          -0.5494748    -2.4255147     1.0635578
26
446_C11H12N2O_4-6-22-17 (-30,) energy =    -611.0839189
C           5.6106773     0.8135804    -0.4158718
H           6.3859088     1.5075962    -0.7286270
C           5.5077346     0.4267596     0.9156502
H           6.1959733     0.8118950     1.6617471
C           4.4936172    -0.4549428     1.2957044
H           4.3769461    -0.7235359     2.3392671
C           3.5791994    -0.9506204     0.3668453
C           3.7183308    -0.5959198    -0.9993080
O           2.8732308    -1.1882018    -1.8783560
C           2.9542253    -0.8293396    -3.2475784
H           2.1787743    -1.4102475    -3.7493854
H           3.9332335    -1.0817268    -3.6770834
H           2.7589907     0.2406723    -3.3957786
C           4.7213026     0.3082757    -1.3673727
H           4.8284411     0.6036262    -2.4044071
C           1.3669296    -3.2715066     1.9763291
H           1.0545600    -4.0503140     2.6580483
C           2.6608467    -2.8424341     1.7608238
C           3.9375553    -3.3617741     2.3517704
H           3.8020295    -4.4064883     2.6478962
H           4.2478387    -2.8084316     3.2470501
H           4.7631512    -3.3154632     1.6351987
N           2.5861918    -1.8923727     0.7607816
N           1.2908408    -1.6604353     0.3782223
C           0.5689881    -2.5043948     1.0986456
H          -0.5048622    -2.5355156     0.9619280
26
446_C11H12N2O_4-6-22-17 (-15,) energy =    -611.0797351
C           5.6078007     0.8104814    -0.4418702
H           6.3657035     1.5259583    -0.7484682
C           5.5565648     0.3522796     0.8685744
H           6.2707828     0.6995377     1.6088875
C           4.5632135    -0.5563883     1.2398687
H           4.4946021    -0.8669779     2.2742378
C           3.6022295    -1.0028151     0.3313813
C           3.7038797    -0.5886524    -1.0251132
O           2.8513684    -1.1517685    -1.9161271
C           2.9065559    -0.7377172    -3.2703591
H           2.1316117    -1.3101195    -3.7827473
H           3.8821371    -0.9580313    -3.7248130
H           2.6933289     0.3342254    -3.3740954
C           4.6859936     0.3430087    -1.3809125
H           4.7539288     0.6863134    -2.4062606
C           1.3703313    -3.2590479     1.9997131
H           1.0336087    -3.9782088     2.7334924
C           2.6666933    -2.8305463     1.8129537
C           3.9056600    -3.3104967     2.5115453
H           3.7400252    -4.3280784     2.8786881
H           4.1740648    -2.6948167     3.3793194
H           4.7690195    -3.3286043     1.8398980
N           2.6441750    -1.9911840     0.7090153
N           1.3591952    -1.8169323     0.2496382
C           0.6111060    -2.5964246     1.0096072
H          -0.4534459    -2.6595083     0.8203866
26
446_C11H12N2O_4-6-22-17 (0,) energy =    -611.0744559
C           5.7770589     0.8175484    -0.6259148
H           6.5195773     1.5615957    -0.8994575
C           5.7155640     0.3132223     0.6701620
H           6.4077671     0.6580133     1.4328866
C           4.7615161    -0.6463591     1.0028184
H           4.7133123    -0.9839871     2.0270493
C           3.8137679    -1.1009825     0.0731900
C           3.9319831    -0.6422024    -1.2651585
O           3.2164340    -1.1859173    -2.2984024
C           2.1028358    -0.4215438    -2.7611213
H           1.7324698    -0.9357390    -3.6509790
H           2.4072036     0.5987177    -3.0320458
H           1.3182204    -0.3939104    -1.9993399
C           4.8867368     0.3302474    -1.5782752
H           4.9431680     0.6565403    -2.6127582
C           1.4964982    -3.3828868     1.6092175
H           1.0855901    -4.0443466     2.3591097
C           2.7639767    -2.8439625     1.6103101
C           3.8550039    -3.1390794     2.5987756
H           3.6100481    -4.0665607     3.1248516
H           3.9679822    -2.3583180     3.3615125
H           4.8254843    -3.2752775     2.1120864
N           2.8951634    -2.1421142     0.4157720
N           1.7095485    -2.1626088    -0.2826910
C           0.8923006    -2.9232845     0.4204100
H          -0.1060140    -3.1175494     0.0484788
26
446_C11H12N2O_4-6-22-17 (15,) energy =    -611.0797331
C           4.6245198     1.3071625    -1.0203901
H           5.1005689     2.1698338    -1.4780828
C           3.4318773     1.4454811    -0.3216065
H           2.9545994     2.4153667    -0.2201912
C           2.8481701     0.3229574     0.2696501
H           1.9489660     0.4453283     0.8592333
C           3.4445224    -0.9367393     0.1952468
C           4.6250163    -1.0867717    -0.5829735
O           5.1006268    -2.3434879    -0.7621091
C           6.2935568    -2.5231535    -1.5058423
H           6.4815152    -3.5980383    -1.5018213
H           7.1420392    -2.0053758    -1.0397307
H           6.1838301    -2.1768123    -2.5425859
C           5.2164666     0.0488512    -1.1482415
H           6.1315289    -0.0506557    -1.7197366
C           1.4158003    -3.3004097     1.9701871
H           0.5247025    -3.7294625     2.4070747
C           1.4662637    -2.2190580     1.1175077
C           0.3163684    -1.4458470     0.5403391
H          -0.5731394    -2.0831956     0.5240553
H           0.5191708    -1.1204630    -0.4842855
H           0.0625612    -0.5538751     1.1269164
N           2.7933303    -2.0853411     0.7370047
N           3.5875450    -2.9998008     1.3888240
C           2.7533746    -3.7351713     2.1017151
H           3.1407115    -4.5588125     2.6887084
26
446_C11H12N2O_4-6-22-17 (30,) energy =    -611.0839189
C           4.6107765     1.3201893    -1.0033466
H           5.0727303     2.1781501    -1.4839300
C           3.4661361     1.4783453    -0.2300649
H           3.0184389     2.4578087    -0.0926544
C           2.8993430     0.3625529     0.3896356
H           2.0355456     0.4848199     1.0328177
C           3.4620445    -0.9059654     0.2522855
C           4.5987530    -1.0731527    -0.5792724
O           5.0429956    -2.3400224    -0.7674424
C           6.2009528    -2.5445869    -1.5595290
H           6.3741990    -3.6218668    -1.5529991
H           7.0749419    -2.0340368    -1.1346908
H           6.0513046    -2.2063731    -2.5938638
C           5.1755270     0.0540772    -1.1756612
H           6.0554602    -0.0548656    -1.7985585
C           1.4232859    -3.3177598     1.9545790
H           0.5209544    -3.7879192     2.3200992
C           1.4949563    -2.2491279     1.0841440
C           0.3819285    -1.5180766     0.3944702
H          -0.4836383    -2.1808173     0.2993133
H           0.6727849    -1.1919089    -0.6086479
H           0.0508661    -0.6292145     0.9461144
N           2.8395268    -2.0416053     0.8446881
N           3.6220430    -2.8968878     1.5756060
C           2.7646363    -3.6699712     2.2233285
H           3.1396962    -4.4592270     2.8630320
26
446_C11H12N2O_4-6-22-17 (45,) energy =    -611.0864726
C           4.6106738     1.3333291    -0.9857504
H           5.0630603     2.1845111    -1.4872161
C           3.5158683     1.5137109    -0.1461761
H           3.1020842     2.5032489     0.0216500
C           2.9610428     0.4065588     0.4990619
H           2.1331434     0.5331952     1.1888526
C           3.4822891    -0.8718864     0.3090077
C           4.5737738    -1.0594120    -0.5725075
O           4.9848415    -2.3359669    -0.7709503
C           6.1082543    -2.5656199    -1.6056184
H           6.2655369    -3.6452900    -1.5962830
H           7.0052088    -2.0645584    -1.2193628
H           5.9230526    -2.2339136    -2.6362079
C           5.1401177     0.0578443    -1.1976677
H           5.9839520    -0.0639229    -1.8666012
C           1.4605630    -3.3643937     1.9186196
H           0.5610087    -3.8892540     2.2085546
C           1.5434478    -2.2963368     1.0461632
C           0.4659770    -1.6124886     0.2613211
H          -0.3988755    -2.2767593     0.1748459
H           0.8021986    -1.3574457    -0.7489658
H           0.1205250    -0.6847457     0.7341228
N           2.8831854    -1.9931121     0.9483928
N           3.6533327    -2.7936181     1.7439412
C           2.7910730    -3.6224950     2.3165078
H           3.1561983    -4.3812121     2.9974286
26
446_C11H12N2O_4-6-22-17 (60,) energy =    -611.0877306
C           4.6224865     1.3333171    -0.9378635
H           5.0738760     2.1755723    -1.4552313
C           3.5821898     1.5413846    -0.0363491
H           3.2134585     2.5427659     0.1631071
C           3.0269466     0.4451765     0.6268716
H           2.2377838     0.5834229     1.3596409
C           3.4922293    -0.8457147     0.3875319
C           4.5332339    -1.0592286    -0.5441083
O           4.8977178    -2.3475492    -0.7592161
C           5.9821509    -2.6074177    -1.6364266
H           6.1143418    -3.6904318    -1.6284461
H           6.9047205    -2.1258764    -1.2878087
H           5.7639038    -2.2752699    -2.6602857
C           5.1001679     0.0451582    -1.1919954
H           5.9045584    -0.0942575    -1.9047605
C           1.5020808    -3.4262525     1.8970446
H           0.6181494    -4.0107819     2.1107205
C           1.5941261    -2.3654016     1.0155907
C           0.5634761    -1.7537346     0.1185252
H          -0.3252913    -2.3904502     0.0965251
H           0.9323133    -1.6490646    -0.9081747
H           0.2505982    -0.7573848     0.4535024
N           2.9041780    -1.9537450     1.0608178
N           3.6523481    -2.6874717     1.9341368
C           2.8006774    -3.5754603     2.4325759
H           3.1504474    -4.2947218     3.1625557
26
446_C11H12N2O_4-6-22-17 (75,) energy =    -611.0882269
C           4.6402889     1.3428064    -0.8795624
H           5.1038793     2.1723760    -1.4066904
C           3.6556549     1.5842334     0.0753293
H           3.3444621     2.5985516     0.3050252
C           3.0811129     0.5036510     0.7480438
H           2.3288314     0.6603474     1.5154427
C           3.4754864    -0.8011267     0.4652423
C           4.4633724    -1.0468474    -0.5126617
O           4.7642211    -2.3487315    -0.7479893
C           5.7914657    -2.6473538    -1.6807670
H           5.8765307    -3.7350779    -1.6876931
H           6.7503212    -2.2093831    -1.3753747
H           5.5367314    -2.2959497    -2.6895279
C           5.0475541     0.0394742    -1.1757651
H           5.8125497    -0.1234339    -1.9260202
C           1.5121885    -3.4595075     1.8720655
H           0.6558760    -4.1054471     2.0067941
C           1.6272505    -2.4218062     0.9655841
C           0.6752223    -1.9124593    -0.0703235
H          -0.2298351    -2.5258659    -0.0713850
H           1.1126412    -1.9520670    -1.0752681
H           0.3776363    -0.8730644     0.1125800
N           2.8797727    -1.8959567     1.1562177
N           3.5772950    -2.5417531     2.1336523
C           2.7442979    -3.4836865     2.5623216
H           3.0585966    -4.1480542     3.3575675
26
446_C11H12N2O_4-6-22-17 (90,) energy =    -611.0886788
C           4.6692661     1.3819935    -0.8096552
H           5.1359112     2.2056310    -1.3433746
C           3.7745771     1.6389138     0.2266240
H           3.5357974     2.6590167     0.5109320
C           3.1890762     0.5659004     0.9017727
H           2.4985841     0.7307995     1.7233435
C           3.4954692    -0.7455747     0.5503915
C           4.3909439    -1.0053959    -0.5077719
O           4.6036703    -2.3142483    -0.8048452
C           5.5482180    -2.6321422    -1.8162551
H           5.5786244    -3.7219402    -1.8600010
H           6.5462245    -2.2497868    -1.5669924
H           5.2420273    -2.2372801    -2.7940074
C           4.9801983     0.0715064    -1.1813020
H           5.6767313    -0.1028998    -1.9931532
C           1.5242535    -3.4064851     1.9402149
H           0.6973931    -4.0978829     2.0236342
C           1.7179837    -2.4695553     0.9417119
C           0.9174019    -2.1474045    -0.2797957
H           0.0029949    -2.7466038    -0.2932208
H           1.4798662    -2.3663421    -1.1957796
H           0.6310826    -1.0895847    -0.3169944
N           2.8925600    -1.8337474     1.2479993
N           3.4615610    -2.3030772     2.3950447
C           2.6302255    -3.2555983     2.8053718
H           2.8553045    -3.8009520     3.7134231
26
446_C11H12N2O_4-6-22-17 (105,) energy =    -611.0899341
C           4.7070445     1.4376315    -0.7242399
H           5.1686040     2.2701570    -1.2483550
C           3.9095819     1.6699295     0.3940918
H           3.7413742     2.6806224     0.7529244
C           3.3232370     0.5866571     1.0502045
H           2.7041054     0.7309100     1.9298077
C           3.5388103    -0.7153631     0.6048374
C           4.3445257    -0.9502353    -0.5284305
O           4.4933128    -2.2505659    -0.9052032
C           5.3739022    -2.5448917    -1.9801519
H           5.3747314    -3.6321406    -2.0723200
H           6.3928125    -2.1962413    -1.7694949
H           5.0256254    -2.1005416    -2.9217555
C           4.9255754     0.1385739    -1.1893203
H           5.5512584    -0.0188544    -2.0601331
C           1.5662349    -3.3801597     1.9824714
H           0.7777717    -4.1182039     2.0307114
C           1.8597522    -2.5577720     0.9105187
C           1.2192471    -2.4301691    -0.4342938
H           0.3225726    -3.0541782    -0.4786383
H           1.8999107    -2.7488832    -1.2319031
H           0.9236134    -1.3956099    -0.6470668
N           2.9397477    -1.8062160     1.2989841
N           3.3361627    -2.0807462     2.5762352
C           2.5092441    -3.0405646     2.9771127
H           2.6202842    -3.4551289     3.9712897
26
446_C11H12N2O_4-6-22-17 (120,) energy =    -611.0905566
C           4.7557399     1.4581391    -0.6743874
H           5.2430682     2.2800405    -1.1917354
C           4.0193182     1.6955779     0.4839689
H           3.9271449     2.7004397     0.8844084
C           3.3937721     0.6273490     1.1263962
H           2.8196206     0.7755222     2.0347874
C           3.5013034    -0.6693313     0.6254753
C           4.2720235    -0.9135077    -0.5310410
O           4.3762871    -2.2120116    -0.9331790
C           5.2395699    -2.5150425    -2.0196858
H           5.2160148    -3.6012087    -2.1218777
H           6.2676410    -2.1902005    -1.8159213
H           4.8918479    -2.0547843    -2.9537750
C           4.8842017     0.1637504    -1.1827391
H           5.4739600    -0.0024177    -2.0766329
C           1.5896842    -3.3879505     1.9964362
H           0.8548921    -4.1803203     2.0270331
C           1.9052456    -2.6023146     0.9030660
C           1.3300875    -2.5868748    -0.4769439
H           0.4171766    -3.1883025    -0.5015478
H           2.0326717    -2.9925229    -1.2120379
H           1.0740262    -1.5689765    -0.7943611
N           2.8801377    -1.7359981     1.3336595
N           3.1912510    -1.9141744     2.6520332
C           2.4130909    -2.9176839     3.0416944
H           2.4723360    -3.2679422     4.0645912
26
446_C11H12N2O_4-6-22-17 (135,) energy =    -611.0896391
C           4.8159534     1.4858961    -0.6593064
H           5.3336078     2.3001827    -1.1588072
C           4.1065376     1.7171475     0.5169328
H           4.0676128     2.7104617     0.9533283
C           3.4386615     0.6598019     1.1319364
H           2.8846056     0.8054909     2.0525155
C           3.4642568    -0.6236664     0.5835562
C           4.2343361    -0.8687087    -0.5746874
O           4.3192151    -2.1623835    -0.9978668
C           5.1734985    -2.4621788    -2.0917038
H           5.1289562    -3.5457796    -2.2133950
H           6.2083307    -2.1611205    -1.8853437
H           4.8325876    -1.9789313    -3.0166114
C           4.8832376     0.2017175    -1.2022741
H           5.4632979     0.0334248    -2.1019735
C           1.6552845    -3.4268017     1.9393506
H           0.9968031    -4.2840443     1.9558369
C           1.9775113    -2.6623090     0.8327163
C           1.4652466    -2.7562590    -0.5701378
H           0.5025831    -3.2759986    -0.5728044
H           2.1536551    -3.3005262    -1.2233398
H           1.3155908    -1.7634853    -1.0085060
N           2.8149009    -1.6725479     1.2919882
N           3.0430865    -1.7706201     2.6371640
C           2.3407663    -2.8305744     3.0181106
H           2.3526114    -3.1279501     4.0592399
26
446_C11H12N2O_4-6-22-17 (150,) energy =    -611.0869490
C           4.8772627     1.4899060    -0.6077218
H           5.4337883     2.2918752    -1.0846429
C           4.1895845     1.7169733     0.5819496
H           4.2088197     2.6935468     1.0559565
C           3.4692496     0.6777489     1.1655827
H           2.9317584     0.8236826     2.0951659
C           3.4068567    -0.5855010     0.5705221
C           4.1758556    -0.8350490    -0.5888799
O           4.2234493    -2.1204073    -1.0425625
C           5.0752158    -2.4239487    -2.1365881
H           4.9979744    -3.5030439    -2.2809510
H           6.1175679    -2.1595985    -1.9181509
H           4.7556762    -1.9121633    -3.0537555
C           4.8749721     0.2209663    -1.1872299
H           5.4460781     0.0476869    -2.0916550
C           1.6997966    -3.4549725     1.9336660
H           1.1201291    -4.3673781     1.9525987
C           2.0121328    -2.7077629     0.8128717
C           1.5377737    -2.8993719    -0.5955711
H           0.5523149    -3.3758944    -0.5826637
H           2.2150008    -3.5290029    -1.1792628
H           1.4445260    -1.9442508    -1.1210981
N           2.7103625    -1.6119731     1.2719933
N           2.8751764    -1.6452472     2.6327582
C           2.2579637    -2.7524570     3.0208091
H           2.2354100    -3.0053428     4.0735112
26
446_C11H12N2O_4-6-22-17 (165,) energy =    -611.0824796
C           4.9643209     1.5143124    -0.5629564
H           5.5581941     2.2980194    -1.0248351
C           4.3010076     1.7397003     0.6403756
H           4.3778329     2.6979171     1.1450987
C           3.5330625     0.7241779     1.2025253
H           3.0159487     0.8744861     2.1418441
C           3.3830213    -0.5165345     0.5712062
C           4.1413499    -0.7728680    -0.5949615
O           4.1425444    -2.0472775    -1.0819867
C           4.9842767    -2.3592862    -2.1805501
H           4.8639140    -3.4309121    -2.3501588
H           6.0359860    -2.1424664    -1.9545270
H           4.6882977    -1.8149976    -3.0867967
C           4.8896091     0.2624101    -1.1709487
H           5.4453714     0.0803679    -2.0829903
C           1.7613014    -3.4069047     2.0076350
H           1.2565912    -4.3617583     2.0570907
C           2.0715104    -2.7098349     0.8558853
C           1.6350924    -3.0374254    -0.5424310
H           0.6687149    -3.5508810    -0.5007273
H           2.3440514    -3.6889498    -1.0600055
H           1.5133641    -2.1370236    -1.1496307
N           2.6338711    -1.5156195     1.2690993
N           2.7227273    -1.4574103     2.6405996
C           2.1859457    -2.5870247     3.0717010
H           2.1219246    -2.7710577     4.1370008
26
446_C11H12N2O_4-6-22-17 (180,) energy =    -611.0769008
C           5.2440369     1.4293114    -0.3476110
H           5.8798799     2.2014375    -0.7713393
C           4.7070954     1.5630547     0.9286980
H           4.9027901     2.4497830     1.5240904
C           3.9043036     0.5537278     1.4506681
H           3.4785999     0.6508943     2.4393477
C           3.6366081    -0.6274214     0.7414269
C           4.1184605    -0.7154915    -0.5864754
O           3.7259726    -1.7815722    -1.3410984
C           4.1252667    -1.8521802    -2.6996528
H           3.6618263    -2.7575394    -3.0968578
H           5.2154803    -1.9322908    -2.7993650
H           3.7717172    -0.9831483    -3.2689705
C           4.9416154     0.2965506    -1.0983380
H           5.3290297     0.2088259    -2.1060604
C           1.1979463    -3.0797216     1.8544687
H           0.6185694    -3.9919761     1.8858949
C           2.2646155    -2.8319293     1.0132102
C           2.8906505    -3.8654698     0.1194658
H           2.6098460    -4.8532993     0.4988983
H           3.9804572    -3.8005838     0.1152661
H           2.5518424    -3.7917810    -0.9165703
N           2.7613225    -1.5826781     1.3727208
N           2.0029461    -1.0420152     2.3887227
C           1.0840105    -1.9437634     2.6759754
H           0.3740645    -1.7442983     3.4690897
