24
280_C8H12N2O2_16-10-11-12 (-165,) energy =    -572.0094100
C           2.4934008    -0.2114011    -1.5235811
N           1.2302756    -0.7157930    -1.3290376
C           0.3273808    -0.7224179    -2.4706313
H           0.6273379     0.0569875    -3.1696384
H          -0.6958118    -0.5400204    -2.1219881
H           0.3476262    -1.6886066    -2.9964506
C           0.8483923    -1.5978885    -0.2369012
H           1.6676781    -1.7200989     0.4663942
H           0.5804736    -2.5853845    -0.6402086
H          -0.0168607    -1.2017397     0.3081712
C           3.3568760     0.1885916     0.9971908
O           2.2055917     0.1380628     1.7257708
C           2.2679960     0.6986963     3.0289688
H           1.2519761     0.6573134     3.4265443
H           2.6092303     1.7413492     2.9966644
H           2.9347561     0.1220229     3.6841285
C           3.4148568    -0.0290156    -0.3849849
N           4.7421653     0.1481618    -0.7372049
H           5.0055932     0.1627998    -1.7133721
C           5.4946468     0.4592283     0.3442004
H           6.5581778     0.6324521     0.2634640
C           4.6665516     0.4886018     1.4563638
H           4.9733207     0.7013417     2.4698612
O           2.8888777     0.1249407    -2.6499543
24
280_C8H12N2O2_16-10-11-12 (-150,) energy =    -572.0086836
C           2.4919721    -0.1819856    -1.4891361
N           1.2407897    -0.7162733    -1.3000451
C           0.3176221    -0.6778126    -2.4248571
H           0.5936260     0.1411423    -3.0875852
H          -0.7016745    -0.5295283    -2.0497132
H           0.3425476    -1.6151981    -3.0001704
C           0.8899088    -1.6579785    -0.2475242
H           1.7247390    -1.8089377     0.4315578
H           0.6227240    -2.6254375    -0.6970454
H           0.0328460    -1.2998794     0.3352706
C           3.3892331     0.0972551     1.0342782
O           2.2504435    -0.0070478     1.7798762
C           2.2176839     0.7680844     2.9715383
H           1.2010301     0.6837944     3.3615238
H           2.4497575     1.8204210     2.7655232
H           2.9202732     0.3847975     3.7234460
C           3.4300797    -0.0459737    -0.3570868
N           4.7508720     0.1554847    -0.7176235
H           5.0025536     0.2189749    -1.6948694
C           5.5152348     0.4216915     0.3690328
H           6.5761098     0.6079190     0.2821484
C           4.7020491     0.3884870     1.4909552
H           5.0187385     0.5521839     2.5107787
O           2.8628529     0.2213082    -2.6016166
24
280_C8H12N2O2_16-10-11-12 (-135,) energy =    -572.0078198
C           2.5009544    -0.1526372    -1.4380190
N           1.2610755    -0.7131042    -1.2550810
C           0.3165936    -0.6294512    -2.3597953
H           0.5717374     0.2242900    -2.9859913
H          -0.6970206    -0.5114179    -1.9594573
H           0.3407595    -1.5370199    -2.9809276
C           0.9380286    -1.7067853    -0.2415890
H           1.7911028    -1.8908200     0.4060293
H           0.6591969    -2.6500514    -0.7330692
H           0.0971122    -1.3801809     0.3815872
C           3.4333347     0.0136297     1.0810094
O           2.3095189    -0.1381111     1.8457853
C           2.1460548     0.8196012     2.8872920
H           1.1634002     0.6292505     3.3249180
H           2.1836128     1.8423018     2.4918183
H           2.9102670     0.7074116     3.6671831
C           3.4569598    -0.0639646    -0.3147078
N           4.7718423     0.1539589    -0.6832316
H           5.0126862     0.2615453    -1.6592541
C           5.5510934     0.3701606     0.4061713
H           6.6109690     0.5597769     0.3139700
C           4.7524856     0.2824852     1.5341519
H           5.0802749     0.3933043     2.5578910
O           2.8478695     0.3135523    -2.5331482
24
280_C8H12N2O2_16-10-11-12 (-120,) energy =    -572.0072698
C           2.5043081    -0.1216685    -1.3885816
N           1.2738294    -0.7016993    -1.2057345
C           0.3074662    -0.5814787    -2.2881408
H           0.5442020     0.2987219    -2.8842223
H          -0.6990690    -0.4879754    -1.8642446
H           0.3265815    -1.4632655    -2.9453785
C           0.9778608    -1.7375347    -0.2261873
H           1.8468560    -1.9442411     0.3927433
H           0.6904128    -2.6603585    -0.7501556
H           0.1509411    -1.4407525     0.4296645
C           3.4822089    -0.0555824     1.1178897
O           2.3808320    -0.2426091     1.9112594
C           2.0715467     0.8530465     2.7703116
H           1.1636077     0.5731140     3.3098157
H           1.8902899     1.7674547     2.1909881
H           2.8754532     1.0415191     3.4931815
C           3.4815372    -0.0738809    -0.2795382
N           4.7890991     0.1570369    -0.6614243
H           5.0167283     0.2996874    -1.6360852
C           5.5896669     0.3203578     0.4238360
H           6.6493410     0.5050172     0.3198409
C           4.8100905     0.1865130     1.5595589
H           5.1516772     0.2435200     2.5835903
O           2.8262556     0.3944714    -2.4684274
24
280_C8H12N2O2_16-10-11-12 (-105,) energy =    -572.0069836
C           2.5005133    -0.0928210    -1.3528613
N           1.2730986    -0.6772710    -1.1590827
C           0.2866543    -0.5285223    -2.2199938
H           0.5039763     0.3745769    -2.7885821
H          -0.7127554    -0.4606481    -1.7751230
H           0.3026221    -1.3861628    -2.9084973
C           1.0045083    -1.7545781    -0.2162783
H           1.8777735    -1.9598053     0.3964971
H           0.7378706    -2.6657956    -0.7709379
H           0.1703170    -1.4997064     0.4481042
C           3.5334054    -0.1101641     1.1340158
O           2.4597576    -0.3194002     1.9616774
C           1.9855050     0.8578794     2.6154082
H           1.1511717     0.5453248     3.2481180
H           1.6373942     1.6000822     1.8853297
H           2.7657392     1.3112146     3.2401879
C           3.5016467    -0.0801395    -0.2633327
N           4.7996232     0.1656034    -0.6648592
H           5.0083833     0.3368268    -1.6391806
C           5.6257883     0.2871041     0.4078206
H           6.6834642     0.4721357     0.2857945
C           4.8702897     0.1137221     1.5541847
H           5.2281379     0.1320767     2.5742178
O           2.7979651     0.4581724    -2.4220194
24
280_C8H12N2O2_16-10-11-12 (-90,) energy =    -572.0070123
C           2.5261850    -0.0706527    -1.3028277
N           1.2661163    -0.5821189    -1.0861626
C           0.3284046    -0.4707128    -2.1982616
H           0.5192273     0.4527359    -2.7432047
H          -0.6917497    -0.4674973    -1.8003384
H           0.4278636    -1.3116312    -2.9005445
C           0.9847937    -1.6831149    -0.1705231
H           1.6626426    -1.6713509     0.6786378
H           1.0568201    -2.6509758    -0.6899904
H          -0.0371706    -1.5805503     0.2119422
C           3.6409693    -0.1230468     1.1662169
O           2.6239669    -0.3666135     2.0555763
C           1.9408939     0.8075420     2.5010669
H           1.1972630     0.4751674     3.2294780
H           1.4392897     1.3130355     1.6661143
H           2.6364682     1.5081318     2.9800277
C           3.5487456    -0.0692658    -0.2303616
N           4.8309512     0.1864054    -0.6757415
H           4.9973031     0.3689146    -1.6565755
C           5.7011419     0.2844222     0.3624115
H           6.7528110     0.4719018     0.1993689
C           4.9919429     0.0905892     1.5352128
H           5.3848703     0.0877962     2.5422844
O           2.8357082     0.4349697    -2.3907799
24
280_C8H12N2O2_16-10-11-12 (-75,) energy =    -572.0072898
C           2.5412001    -0.0295168    -1.2522480
N           1.2819607    -0.5394506    -1.0159557
C           0.3224222    -0.4106180    -2.1076538
H           0.5030226     0.5213550    -2.6414996
H          -0.6898887    -0.4136539    -1.6902677
H           0.4081870    -1.2402203    -2.8249980
C           1.0256386    -1.6625043    -0.1191654
H           1.7235888    -1.6685481     0.7144678
H           1.0912874    -2.6182863    -0.6612041
H           0.0119423    -1.5741121     0.2877815
C           3.6946647    -0.1306448     1.1954310
O           2.6994209    -0.3607500     2.1118726
C           1.8381583     0.7578419     2.3429749
H           1.1403334     0.4516936     3.1261486
H           1.2806657     1.0246156     1.4368358
H           2.4142131     1.6275395     2.6829147
C           3.5816144    -0.0525609    -0.1996472
N           4.8614766     0.1865391    -0.6622685
H           5.0178033     0.3815975    -1.6422498
C           5.7503031     0.2431966     0.3625748
H           6.8028171     0.4125962     0.1859416
C           5.0553563     0.0454588     1.5437487
H           5.4611886     0.0221033     2.5452131
O           2.8300761     0.4879983    -2.3396504
24
280_C8H12N2O2_16-10-11-12 (-60,) energy =    -572.0070364
C           2.5404216     0.0402250    -1.2171136
N           1.2912702    -0.4970501    -0.9750315
C           0.3188826    -0.3705489    -2.0559359
H           0.4681829     0.5787350    -2.5686303
H          -0.6893504    -0.4123878    -1.6310363
H           0.4226248    -1.1797625    -2.7938228
C           1.0770427    -1.6505653    -0.1052511
H           1.7870982    -1.6626379     0.7185454
H           1.1629062    -2.5898526    -0.6725701
H           0.0669964    -1.6015018     0.3167945
C           3.7196880    -0.1149970     1.2148846
O           2.7424852    -0.2914576     2.1597230
C           1.7582918     0.7452801     2.2185060
H           1.1017635     0.4933721     3.0547667
H           1.1729245     0.8006432     1.2940106
H           2.2337873     1.7165092     2.4041794
C           3.5894856     0.0038226    -0.1765718
N           4.8726313     0.2002959    -0.6542107
H           5.0256516     0.3987977    -1.6336996
C           5.7780322     0.1876717     0.3567575
H           6.8341493     0.3192265     0.1696514
C           5.0922914    -0.0075284     1.5436711
H           5.5090296    -0.0602891     2.5393552
O           2.8089668     0.5767785    -2.2998312
24
280_C8H12N2O2_16-10-11-12 (-45,) energy =    -572.0057215
C           2.5302925     0.1216733    -1.1810649
N           1.3013752    -0.4688178    -0.9494705
C           0.3181331    -0.3463208    -2.0208048
H           0.4280591     0.6238131    -2.5036165
H          -0.6855050    -0.4402217    -1.5933071
H           0.4488994    -1.1270064    -2.7846586
C           1.1388143    -1.6575195    -0.1161146
H           1.8648728    -1.6763174     0.6936664
H           1.2476467    -2.5740045    -0.7157685
H           0.1353553    -1.6578702     0.3240997
C           3.7277661    -0.0847089     1.2374252
O           2.7749069    -0.1782199     2.2148495
C           1.6965434     0.7570348     2.1432291
H           1.0888251     0.5818671     3.0339935
H           1.0859923     0.6176564     1.2461869
H           2.0812404     1.7848987     2.1576824
C           3.5856593     0.0710072    -0.1495182
N           4.8725915     0.2067789    -0.6439020
H           5.0269165     0.4032821    -1.6231522
C           5.7888440     0.1200490     0.3530885
H           6.8480259     0.1983204     0.1537571
C           5.1102243    -0.0591432     1.5457496
H           5.5360027    -0.1411059     2.5355113
O           2.7752017     0.6949600    -2.2497201
24
280_C8H12N2O2_16-10-11-12 (-30,) energy =    -572.0035018
C           2.5154934     0.1814970    -1.1419304
N           1.3082103    -0.4584812    -0.9181813
C           0.3084349    -0.3297483    -1.9731388
H           0.3768985     0.6626214    -2.4170368
H          -0.6863003    -0.4777238    -1.5399400
H           0.4585825    -1.0731443    -2.7699817
C           1.2029271    -1.6893489    -0.1382103
H           1.9605032    -1.7274037     0.6418255
H           1.3170631    -2.5730321    -0.7845120
H           0.2158964    -1.7413103     0.3352155
C           3.7302531    -0.0502639     1.2634328
O           2.8095078    -0.0391759     2.2713775
C           1.6488163     0.7720379     2.1019410
H           1.1376067     0.7633514     3.0672942
H           0.9788256     0.3933389     1.3262610
H           1.9354329     1.8007451     1.8467379
C           3.5797828     0.1204998    -0.1206738
N           4.8678041     0.1816632    -0.6331425
H           5.0242350     0.3565761    -1.6156160
C           5.7895872     0.0330590     0.3515790
H           6.8492199     0.0516180     0.1403095
C           5.1178348    -0.1090038     1.5518124
H           5.5508033    -0.2060683     2.5370234
O           2.7334838     0.7893045    -2.1962529
24
280_C8H12N2O2_16-10-11-12 (-15,) energy =    -572.0010717
C           2.5144134     0.2283941    -1.1012032
N           1.3219500    -0.4442769    -0.8907729
C           0.3006745    -0.2800352    -1.9191909
H           0.3401278     0.7363642    -2.3093642
H          -0.6830180    -0.4723598    -1.4778027
H           0.4507849    -0.9752754    -2.7584489
C           1.2588992    -1.7192072    -0.1815215
H           2.0733477    -1.8041532     0.5358587
H           1.3260503    -2.5612241    -0.8877097
H           0.3067529    -1.8046533     0.3552179
C           3.7341799     0.0099986     1.3016363
O           2.8431099     0.1339629     2.3248248
C           1.5906367     0.7614188     2.0785167
H           1.1794092     0.9958956     3.0632935
H           0.8943385     0.1150585     1.5393243
H           1.7266760     1.6884532     1.5066952
C           3.5843186     0.1445656    -0.0866818
N           4.8722206     0.1315583    -0.6073649
H           5.0365976     0.2685051    -1.5941167
C           5.7912907    -0.0301500     0.3785634
H           6.8493360    -0.0687664     0.1621645
C           5.1213036    -0.1053885     1.5842862
H           5.5550145    -0.1892272     2.5703403
O           2.7143556     0.8726202    -2.1362919
24
280_C8H12N2O2_16-10-11-12 (0,) energy =    -571.9986984
C           2.5226214     0.2482598    -1.0786156
N           1.3299877    -0.4274552    -0.8740729
C           0.3009743    -0.2369467    -1.8899769
H           0.3349843     0.7900268    -2.2522562
H          -0.6791533    -0.4433115    -1.4467706
H           0.4458161    -0.9080454    -2.7496071
C           1.2788859    -1.7251009    -0.2072426
H           2.1213567    -1.8393062     0.4735660
H           1.3132632    -2.5421914    -0.9447755
H           0.3467337    -1.8248021     0.3615439
C           3.7472676     0.0880757     1.3310851
O           2.8909347     0.3302033     2.3611852
C           1.5557097     0.7323782     2.0962201
H           1.1621124     1.0891234     3.0510253
H           0.9344729    -0.0927163     1.7383060
H           1.5267238     1.5470299     1.3619906
C           3.5926072     0.1526120    -0.0628059
N           4.8770777     0.0637251    -0.5881711
H           5.0435759     0.1432041    -1.5805606
C           5.7967664    -0.0773949     0.4004299
H           6.8508008    -0.1703464     0.1810946
C           5.1326744    -0.0634553     1.6104535
H           5.5690556    -0.1094041     2.5977945
O           2.7221284     0.9004552    -2.1078211
24
280_C8H12N2O2_16-10-11-12 (15,) energy =    -572.0010717
C           2.6959673    -0.8051001    -1.0832140
N           1.3209499    -0.8445370    -0.9204410
C           0.5898832    -1.7159415    -1.8335753
H           1.1827352    -2.6073040    -2.0357083
H           0.3805100    -1.2189947    -2.7924562
H          -0.3619515    -1.9978618    -1.3709784
C           0.5566107     0.3074974    -0.4502771
H           1.1685720     0.9451886     0.1853565
H          -0.3155056    -0.0280222     0.1231453
H           0.1931704     0.9063986    -1.2996480
C           3.5075989     0.4737867     1.1561533
O           2.7783558     0.0888260     2.2407271
C           2.0666650    -1.1417607     2.1937526
H           1.8029274    -1.3697390     3.2292901
H           2.7011155    -1.9419826     1.7912571
H           1.1564012    -1.0794473     1.5930259
C           3.5116390     0.0231386    -0.1723459
N           4.6139676     0.6215880    -0.7695870
H           4.8676649     0.4113385    -1.7239928
C           5.2617829     1.4285676     0.1090501
H           6.1435126     1.9828112    -0.1792917
C           4.6050538     1.3599307     1.3224434
H           4.8847571     1.8444401     2.2468115
O           3.2526572    -1.4244893    -1.9958301
24
280_C8H12N2O2_16-10-11-12 (30,) energy =    -572.0035019
C           2.6735820    -0.7733355    -1.1317474
N           1.3029538    -0.8452161    -0.9491855
C           0.5722082    -1.6809249    -1.8961005
H           1.1790576    -2.5469994    -2.1572085
H           0.3352177    -1.1362963    -2.8220342
H          -0.3648410    -2.0069704    -1.4327493
C           0.5234068     0.2610390    -0.3987857
H           1.1100060     0.8419150     0.3099527
H          -0.3571657    -0.1326677     0.1214608
H           0.1741512     0.9301667    -1.1999805
C           3.4737673     0.5143530     1.1080907
O           2.6598017     0.2040077     2.1592898
C           2.1203010    -1.1150255     2.2148980
H           1.6434717    -1.1991972     3.1941163
H           2.9225663    -1.8599225     2.1311819
H           1.3849147    -1.3036686     1.4290294
C           3.4963249     0.0343938    -0.2097536
N           4.6380689     0.5731453    -0.7855103
H           4.9050974     0.3280807    -1.7283574
C           5.2953849     1.3703789     0.0941523
H           6.2087899     1.8792303    -0.1789021
C           4.6018017     1.3548028     1.2902647
H           4.8739359     1.8495728     2.2114991
O           3.2269673    -1.3566015    -2.0709600
24
280_C8H12N2O2_16-10-11-12 (45,) energy =    -572.0057214
C           2.6557683    -0.7234766    -1.1818997
N           1.2929823    -0.8462481    -0.9811859
C           0.5735706    -1.6709853    -1.9464711
H           1.2051392    -2.5039502    -2.2524778
H           0.2990112    -1.0996468    -2.8454885
H          -0.3419139    -2.0474440    -1.4784646
C           0.4854146     0.2048030    -0.3671566
H           1.0542154     0.7582493     0.3767656
H          -0.3803880    -0.2464155     0.1303469
H           0.1127299     0.9072245    -1.1281322
C           3.4543349     0.5365606     1.0764842
O           2.5586516     0.2897843     2.0809225
C           2.1509434    -1.0696341     2.2495954
H           1.5065057    -1.0815484     3.1316523
H           3.0242598    -1.7110899     2.4244099
H           1.5990661    -1.4472471     1.3837300
C           3.4761069     0.0728441    -0.2473538
N           4.6560105     0.5528419    -0.7918474
H           4.9326348     0.2894036    -1.7274968
C           5.3411350     1.2984447     0.1113212
H           6.2855790     1.7599829    -0.1391466
C           4.6221236     1.3085731     1.2936881
H           4.8960069     1.7879699     2.2225584
O           3.2139867    -1.2666088    -2.1431824
24
280_C8H12N2O2_16-10-11-12 (60,) energy =    -572.0070362
C           2.6222721    -0.6574281    -1.2326116
N           1.2704101    -0.8329654    -1.0107128
C           0.5626633    -1.6569933    -1.9853705
H           1.2176681    -2.4572149    -2.3272818
H           0.2486762    -1.0715243    -2.8621283
H          -0.3286160    -2.0796148    -1.5101407
C           0.4364560     0.1680609    -0.3508614
H           0.9951464     0.7108387     0.4082273
H          -0.4069358    -0.3311555     0.1392558
H           0.0296581     0.8824893    -1.0826987
C           3.4321573     0.5531149     1.0493046
O           2.4728876     0.3558685     2.0083131
C           2.1933479    -1.0128281     2.3172173
H           1.4690571    -0.9975160     3.1351356
H           3.1058022    -1.5271860     2.6438996
H           1.7678912    -1.5430307     1.4579820
C           3.4447939     0.1253785    -0.2863942
N           4.6533615     0.5562238    -0.8031067
H           4.9301130     0.2904846    -1.7385264
C           5.3681535     1.2374522     0.1279904
H           6.3380823     1.6555003    -0.1004253
C           4.6344535     1.2561508     1.3020796
H           4.9158616     1.7078196     2.2426333
O           3.1812248    -1.1602953    -2.2159541
24
280_C8H12N2O2_16-10-11-12 (75,) energy =    -572.0072870
C           2.5885045    -0.6060285    -1.2843615
N           1.2435200    -0.8130149    -1.0608642
C           0.5509436    -1.6320594    -2.0501327
H           1.2242334    -2.4058279    -2.4164506
H           0.2139244    -1.0340895    -2.9097730
H          -0.3248670    -2.0896127    -1.5784066
C           0.3874709     0.1437628    -0.3657688
H           0.9376775     0.6775509     0.4051946
H          -0.4365153    -0.3942645     0.1165058
H          -0.0473313     0.8654513    -1.0741296
C           3.4055349     0.5472375     1.0259724
O           2.4030604     0.3798990     1.9481331
C           2.2641565    -0.9584163     2.4339250
H           1.4793151    -0.9297417     3.1936991
H           3.2012867    -1.3066428     2.8859137
H           1.9731718    -1.6450599     1.6296005
C           3.4110318     0.1598824    -0.3213203
N           4.6389963     0.5560974    -0.8155749
H           4.9155379     0.2972882    -1.7533644
C           5.3762072     1.1741237     0.1424760
H           6.3631710     1.5596492    -0.0694921
C           4.6340965     1.1897723     1.3113985
H           4.9222894     1.6121292     2.2636278
O           3.1539435    -1.0794616    -2.2793419
24
280_C8H12N2O2_16-10-11-12 (90,) energy =    -572.0070162
C           2.5596567    -0.5866490    -1.3270097
N           1.2124790    -0.7884357    -1.1321329
C           0.5286959    -1.5894255    -2.1414389
H           1.2089704    -2.3488441    -2.5243857
H           0.1883474    -0.9737944    -2.9872016
H          -0.3447713    -2.0648314    -1.6829089
C           0.3460247     0.1299652    -0.4018179
H           0.8927632     0.6483262     0.3810708
H          -0.4642921    -0.4370213     0.0709299
H          -0.1079153     0.8635748    -1.0855243
C           3.3673229     0.5156094     1.0132104
O           2.3408984     0.3447206     1.9088851
C           2.3720449    -0.9033174     2.6052361
H           1.5334539    -0.8878615     3.3056539
H           3.3116040    -1.0198013     3.1599848
H           2.2576992    -1.7457666     1.9112868
C           3.3783348     0.1583140    -0.3410239
N           4.6171640     0.5435358    -0.8153616
H           4.8982921     0.2919359    -1.7538569
C           5.3602996     1.1201109     0.1643616
H           6.3560244     1.4923062    -0.0299138
C           4.6070954     1.1258285     1.3256751
H           4.8939968     1.5276445     2.2873600
O           3.1396086    -1.0480117    -2.3201500
24
280_C8H12N2O2_16-10-11-12 (105,) energy =    -572.0069783
C           2.5379598    -0.5528602    -1.3471365
N           1.1816055    -0.6837837    -1.1810450
C           0.4693337    -1.5252953    -2.1324633
H           1.1554332    -2.2658197    -2.5412605
H           0.0582044    -0.9348116    -2.9643523
H          -0.3602645    -2.0253301    -1.6196804
C           0.3436422     0.2296575    -0.4162379
H           0.9465769     0.9905142     0.0718911
H          -0.2270023    -0.3035715     0.3532848
H          -0.3673749     0.7228699    -1.0943027
C           3.3045578     0.4616649     1.0271851
O           2.2553041     0.2071893     1.8731946
C           2.4651401    -0.8991457     2.7507435
H           1.5574655    -0.9929144     3.3519751
H           3.3235212    -0.7284145     3.4132296
H           2.6302732    -1.8248377     2.1844702
C           3.3475880     0.1658276    -0.3385464
N           4.5891836     0.5823789    -0.7753833
H           4.8953935     0.3744602    -1.7162647
C           5.3094783     1.1163358     0.2464648
H           6.3054189     1.5045625     0.0880322
C           4.5355259     1.0661993     1.3925664
H           4.8078772     1.4276259     2.3744585
O           3.1251795    -1.0456223    -2.3206981
24
280_C8H12N2O2_16-10-11-12 (120,) energy =    -572.0072697
C           2.5325286    -0.5177108    -1.3795812
N           1.1768621    -0.6629166    -1.2215519
C           0.4693976    -1.4715743    -2.2041588
H           1.1641660    -2.1801885    -2.6528120
H           0.0401177    -0.8502022    -3.0038366
H          -0.3468979    -2.0093184    -1.7081699
C           0.3331871     0.2097501    -0.4173180
H           0.9304710     0.9561131     0.0995801
H          -0.2294264    -0.3598676     0.3316853
H          -0.3844628     0.7241823    -1.0723559
C           3.2935284     0.3973682     1.0340822
O           2.2332894     0.1049771     1.8513464
C           2.5262553    -0.8122702     2.9034875
H           1.5891877    -0.9700916     3.4427227
H           3.2759852    -0.4092811     3.5961840
H           2.8874524    -1.7679014     2.5023589
C           3.3383954     0.1626979    -0.3428534
N           4.5797431     0.6019537    -0.7612262
H           4.8866772     0.4317615    -1.7093604
C           5.2995179     1.0881574     0.2832537
H           6.2962291     1.4825793     0.1460417
C           4.5253781     0.9855479     1.4259325
H           4.8035472     1.3034452     2.4209741
O           3.1233561    -0.9654261    -2.3728474
24
280_C8H12N2O2_16-10-11-12 (135,) energy =    -572.0078201
C           2.5258163    -0.4909393    -1.4153875
N           1.1720020    -0.6582412    -1.2610230
C           0.4693788    -1.4277125    -2.2777144
H           1.1704841    -2.1053883    -2.7627827
H           0.0282522    -0.7744319    -3.0449718
H          -0.3377575    -1.9987628    -1.8043383
C           0.3222241     0.1667762    -0.4148356
H           0.9134827     0.8929356     0.1367534
H          -0.2338081    -0.4435449     0.3066152
H          -0.4013485     0.7063322    -1.0427396
C           3.2887607     0.3152932     1.0361439
O           2.2252696    -0.0247077     1.8261307
C           2.5536316    -0.7194889     3.0253059
H           1.6035635    -1.0159503     3.4757216
H           3.0971076    -0.0785753     3.7315540
H           3.1565184    -1.6109445     2.8119290
C           3.3296212     0.1450632    -0.3509182
N           4.5712249     0.6033496    -0.7515166
H           4.8755162     0.4715831    -1.7066451
C           5.2948790     1.0342711     0.3121713
H           6.2937231     1.4289284     0.1924749
C           4.5245652     0.8784548     1.4524933
H           4.8140902     1.1435350     2.4593362
O           3.1166947    -0.8835815    -2.4321068
24
280_C8H12N2O2_16-10-11-12 (150,) energy =    -572.0086839
C           2.5161075    -0.4730114    -1.4571837
N           1.1655984    -0.6663798    -1.2990368
C           0.4636091    -1.3910104    -2.3482655
H           1.1687958    -2.0333728    -2.8737662
H           0.0072245    -0.7047759    -3.0769958
H          -0.3319412    -1.9964159    -1.8984487
C           0.3138800     0.1055887    -0.4066826
H           0.9024682     0.8038209     0.1824880
H          -0.2359205    -0.5473694     0.2816319
H          -0.4155569     0.6749012    -1.0008543
C           3.2965532     0.2193129     1.0251027
O           2.2441408    -0.1737149     1.8007997
C           2.5733649    -0.6224207     3.1093164
H           1.6514972    -1.0263074     3.5333609
H           2.9256185     0.2017847     3.7437253
H           3.3411384    -1.4055321     3.0775118
C           3.3234954     0.1156740    -0.3701248
N           4.5625519     0.5933701    -0.7595087
H           4.8575973     0.5041944    -1.7225172
C           5.2951239     0.9741543     0.3148724
H           6.2931428     1.3738664     0.2058962
C           4.5363014     0.7623829     1.4552099
H           4.8402932     0.9758347     2.4696804
O           3.1002850    -0.8035955    -2.4999272
24
280_C8H12N2O2_16-10-11-12 (165,) energy =    -572.0094087
C           2.5044612    -0.4525931    -1.4959132
N           1.1594908    -0.6753117    -1.3265863
C           0.4506442    -1.3564295    -2.3998455
H           1.1559870    -1.9612531    -2.9679563
H          -0.0270227    -0.6413970    -3.0860800
H          -0.3289742    -1.9953292    -1.9687933
C           0.3125348     0.0368482    -0.3821130
H           0.9019268     0.7124864     0.2320979
H          -0.2162690    -0.6585584     0.2807947
H          -0.4349532     0.6253159    -0.9337046
C           3.3202232     0.1219307     1.0069022
O           2.2859904    -0.3266221     1.7734743
C           2.5723957    -0.5291227     3.1494371
H           1.6759920    -0.9760856     3.5839084
H           2.7856810     0.4196002     3.6601886
H           3.4243539    -1.2082288     3.2820392
C           3.3211114     0.0910018    -0.3931154
N           4.5527850     0.5930622    -0.7778691
H           4.8315723     0.5487120    -1.7488584
C           5.3005904     0.9260393     0.3003274
H           6.2943516     1.3371640     0.1952466
C           4.5617955     0.6557812     1.4425477
H           4.8823090     0.8243433     2.4601026
O           3.0749494    -0.7192401    -2.5644763
24
280_C8H12N2O2_16-10-11-12 (180,) energy =    -572.0095661
C           2.5014237    -0.2380060    -1.5411411
N           1.2267997    -0.7103575    -1.3408317
C           0.3409374    -0.7623385    -2.4945002
H           0.6652716    -0.0265725    -3.2289900
H          -0.6838151    -0.5438891    -2.1721089
H           0.3515117    -1.7553883    -2.9679433
C           0.8143826    -1.5273929    -0.2102558
H           1.6213792    -1.6231494     0.5110366
H           0.5375136    -2.5310032    -0.5648117
H          -0.0529593    -1.0901664     0.2990867
C           3.3374182     0.2856947     0.9686341
O           2.1763377     0.2920717     1.6819872
C           2.2916728     0.6147827     3.0593616
H           1.2799038     0.5719904     3.4671519
H           2.6984461     1.6248857     3.1996514
H           2.9295520    -0.1060785     3.5881146
C           3.4087880    -0.0102482    -0.3989642
N           4.7420092     0.1374283    -0.7438727
H           5.0150224     0.1015567    -1.7169043
C           5.4862082     0.4920077     0.3291333
H           6.5529030     0.6470017     0.2531315
C           4.6462706     0.5869360     1.4290485
H           4.9455744     0.8436663     2.4344378
O           2.9198552     0.0303302    -2.6774798
