24
280_C8H12N2O2_1-0-16-17 (-165,) energy =    -572.0096003
C           2.5923079    -0.4976628    -1.6649242
N           1.2604127    -0.7967148    -1.5065511
C           0.6021190    -1.5129829    -2.5892152
H           1.3425745    -2.0922026    -3.1390590
H           0.1093379    -0.8231011    -3.2904648
H          -0.1588010    -2.1803904    -2.1683366
C           0.3636517    -0.1176407    -0.5840582
H           0.9131040     0.5681747     0.0548741
H          -0.1633310    -0.8361800     0.0553418
H          -0.3852641     0.4531528    -1.1525284
C           3.3564218     0.1288851     0.8440575
O           2.3364266    -0.3587685     1.6050022
C           2.5350843    -0.3259073     3.0100948
H           1.6439901    -0.7745122     3.4533868
H           2.6445771     0.7037416     3.3762085
H           3.4202364    -0.9066676     3.3007068
C           3.3706141     0.0891635    -0.5563439
N           4.5852765     0.6375452    -0.9332592
H           4.8746772     0.5968035    -1.9013679
C           5.3055636     1.0152302     0.1480956
H           6.2813294     1.4688168     0.0492252
C           4.5679431     0.7227658     1.2859484
H           4.8717572     0.9141902     2.3044537
O           3.1846713    -0.7330298    -2.7289572
24
280_C8H12N2O2_1-0-16-17 (-150,) energy =    -572.0087408
C           2.6231176    -0.6355860    -1.6337010
N           1.2588465    -0.7412244    -1.5360745
C           0.5495057    -1.4872840    -2.5637797
H           1.2726543    -2.0509596    -3.1512909
H          -0.0010340    -0.8110670    -3.2334159
H          -0.1708302    -2.1715516    -2.0979347
C           0.4236335    -0.0192312    -0.5912774
H           1.0111177     0.7210511    -0.0523080
H          -0.0415305    -0.6929677     0.1388396
H          -0.3727549     0.4994075    -1.1421025
C           3.3687995     0.0681084     0.8488694
O           2.3764076    -0.4793849     1.6067683
C           2.5603076    -0.4159380     3.0123210
H           1.7003478    -0.9222261     3.4551387
H           2.5924869     0.6231335     3.3673267
H           3.4824711    -0.9278432     3.3174697
C           3.3958381     0.0001697    -0.5465449
N           4.5604619     0.6387971    -0.9358596
H           4.8714075     0.5942822    -1.8964447
C           5.2491351     1.0863365     0.1431916
H           6.1871196     1.6121762     0.0376540
C           4.5328774     0.7578298     1.2837903
H           4.8181119     0.9890399     2.2994941
O           3.2368404    -1.0154886    -2.6414110
24
280_C8H12N2O2_1-0-16-17 (-135,) energy =    -572.0061333
C           2.6388038    -0.7814499    -1.5922586
N           1.2688770    -0.7069643    -1.5490208
C           0.4988109    -1.4786967    -2.5124233
H           1.1895949    -2.0550216    -3.1260644
H          -0.0883373    -0.8123712    -3.1588387
H          -0.1950713    -2.1548739    -1.9951975
C           0.4957571     0.0760823    -0.6005398
H           1.1319604     0.8107760    -0.1098871
H           0.0311791    -0.5535515     0.1689641
H          -0.2982666     0.6057109    -1.1424686
C           3.4263055     0.0215007     0.8340685
O           2.4782994    -0.5697743     1.6172016
C           2.6654706    -0.4468633     3.0179262
H           1.8428531    -0.9921850     3.4848098
H           2.6325298     0.6036204     3.3381671
H           3.6205249    -0.8875365     3.3334128
C           3.4369174    -0.0883304    -0.5548989
N           4.5317742     0.6369066    -0.9903716
H           4.8379719     0.5965359    -1.9520036
C           5.2071357     1.1645618     0.0647860
H           6.0994071     1.7573360    -0.0755412
C           4.5434217     0.8094535     1.2275883
H           4.8297911     1.0887024     2.2309034
O           3.2354349    -1.3173800    -2.5349498
24
280_C8H12N2O2_1-0-16-17 (-120,) energy =    -572.0022540
C           2.6510525    -0.9010191    -1.5341500
N           1.2976571    -0.6713465    -1.5946138
C           0.4993929    -1.4561971    -2.5250866
H           1.1717676    -2.0675541    -3.1251193
H          -0.0775194    -0.7924721    -3.1818498
H          -0.2055053    -2.1030335    -1.9844298
C           0.5512021     0.1807618    -0.6840680
H           1.2205764     0.8859597    -0.1935182
H           0.0305326    -0.4025071     0.0870161
H          -0.1960220     0.7440506    -1.2565904
C           3.4328527    -0.0322608     0.8549869
O           2.5156079    -0.6766564     1.6348248
C           2.6879403    -0.5385729     3.0356049
H           1.9024845    -1.1375210     3.5009104
H           2.5823978     0.5079733     3.3538583
H           3.6693622    -0.9125632     3.3565321
C           3.4535916    -0.1552549    -0.5282785
N           4.4741161     0.6634015    -0.9775702
H           4.7920340     0.6475410    -1.9356380
C           5.1130809     1.2479220     0.0753974
H           5.9533795     1.9104229    -0.0729477
C           4.4859007     0.8451937     1.2412311
H           4.7512920     1.1530029     2.2420420
O           3.2362693    -1.5917021    -2.3741379
24
280_C8H12N2O2_1-0-16-17 (-105,) energy =    -571.9981693
C           2.6349836    -1.0207355    -1.4710941
N           1.3180417    -0.6661752    -1.6483003
C           0.4911942    -1.4765071    -2.5310722
H           1.1352843    -2.1791709    -3.0576463
H          -0.0271424    -0.8344335    -3.2543009
H          -0.2653524    -2.0311808    -1.9584692
C           0.6065450     0.3148388    -0.8452327
H           1.3128069     0.9607596    -0.3256614
H          -0.0402119    -0.1694563    -0.1004621
H          -0.0234304     0.9308792    -1.4989942
C           3.4610761    -0.0837539     0.8575613
O           2.6036433    -0.7886627     1.6543397
C           2.8060368    -0.6536373     3.0508244
H           2.0717312    -1.3035868     3.5311370
H           2.6456636     0.3815012     3.3839363
H           3.8169684    -0.9696174     3.3416798
C           3.4490939    -0.2001606    -0.5227065
N           4.3799876     0.7035810    -1.0024831
H           4.6698316     0.7352607    -1.9685378
C           5.0074658     1.3318046     0.0366034
H           5.7894390     2.0567623    -0.1359376
C           4.4526878     0.8749122     1.2173805
H           4.7233557     1.1993836     2.2115541
O           3.1764932    -1.8918398    -2.1528249
24
280_C8H12N2O2_1-0-16-17 (-90,) energy =    -571.9956852
C           2.5635125    -1.0716686    -1.2757253
N           1.3144532    -0.6339812    -1.6516903
C           0.5050667    -1.4789159    -2.5168430
H           1.1244601    -2.3002135    -2.8746361
H           0.1284477    -0.8966564    -3.3674792
H          -0.3564832    -1.8858531    -1.9695117
C           0.6482799     0.5378888    -1.1095283
H           1.3279376     1.0905092    -0.4619591
H          -0.2345948     0.2454569    -0.5240006
H           0.3132735     1.1956216    -1.9229246
C           3.4843198    -0.1117530     0.9915102
O           2.7368721    -0.8997484     1.8195333
C           3.0548181    -0.8226600     3.1979563
H           2.4001843    -1.5356307     3.7034409
H           2.8708480     0.1840443     3.5995875
H           4.1024746    -1.0953401     3.3848514
C           3.3593028    -0.1622906    -0.3857345
N           4.2136769     0.7991475    -0.8965065
H           4.4148075     0.9073321    -1.8788341
C           4.8883156     1.4196124     0.1201146
H           5.6206466     2.1878411    -0.0804642
C           4.4490472     0.8874392     1.3165395
H           4.7781649     1.1863177     2.3010315
O           3.0432259    -2.1239086    -1.6899828
24
280_C8H12N2O2_1-0-16-17 (-75,) energy =    -571.9958205
C           2.4255768    -1.1114892    -1.1227611
N           1.2842749    -0.6219903    -1.7239245
C           0.5113205    -1.5066465    -2.5819645
H           1.1047872    -2.3970259    -2.7856750
H           0.2620682    -0.9975980    -3.5217024
H          -0.4264479    -1.8062268    -2.0931878
C           0.6610542     0.6505121    -1.4023980
H           1.2698304     1.1963556    -0.6821451
H          -0.3347226     0.4887933    -0.9658566
H           0.5369133     1.2638695    -2.3056974
C           3.4743652    -0.1483568     1.0709994
O           2.8423843    -0.9915442     1.9350380
C           3.2704006    -0.9308883     3.2840843
H           2.6934745    -1.6860746     3.8216751
H           3.0745488     0.0564695     3.7260862
H           4.3412702    -1.1577808     3.3771022
C           3.2111265    -0.1470733    -0.2899816
N           4.0069968     0.8448411    -0.8424869
H           4.0895045     1.0166712    -1.8325557
C           4.7517770     1.4519905     0.1298126
H           5.4424536     2.2481098    -0.1069064
C           4.4339388     0.8699499     1.3421648
H           4.8449306     1.1449048     2.3024650
O           2.7997909    -2.2702514    -1.2746281
24
280_C8H12N2O2_1-0-16-17 (-60,) energy =    -571.9972476
C           2.3338572    -1.1856921    -0.9890416
N           1.3277464    -0.6613532    -1.7836267
C           0.5810727    -1.5749436    -2.6352538
H           1.1693325    -2.4805052    -2.7786033
H           0.3791737    -1.0993926    -3.6028411
H          -0.3803472    -1.8502320    -2.1778039
C           0.7170997     0.6428507    -1.5804473
H           1.2655468     1.2047986    -0.8250460
H          -0.3226182     0.5294999    -1.2403958
H           0.7025566     1.2195627    -2.5155780
C           3.4972516    -0.2298416     1.1404667
O           2.9477854    -1.0955497     2.0330257
C           3.4492014    -1.0254912     3.3563840
H           2.9263161    -1.7996764     3.9212590
H           3.2487820    -0.0457768     3.8128800
H           4.5298391    -1.2204559     3.3878223
C           3.1367302    -0.2110704    -0.2012847
N           3.8785002     0.8061270    -0.7887576
H           3.8944822     0.9885134    -1.7803129
C           4.6751434     1.4103633     0.1401317
H           5.3369090     2.2208087    -0.1289614
C           4.4508981     0.8041768     1.3625124
H           4.9183215     1.0758382     2.2975094
O           2.5739561    -2.3884462    -0.9545995
24
280_C8H12N2O2_1-0-16-17 (-45,) energy =    -571.9987449
C           1.2092800    -0.5036992    -0.2760772
N           1.1487803    -1.0251221    -1.5665379
C          -0.1781683    -1.2357817    -2.1291295
H          -0.8752777    -1.4646155    -1.3237133
H          -0.1420001    -2.0679497    -2.8416379
H          -0.5425453    -0.3412371    -2.6559092
C           2.2035796    -0.8364214    -2.5544966
H           2.3748347    -1.7619996    -3.1199321
H           3.1336674    -0.5405339    -2.0703320
H           1.9253395    -0.0507906    -3.2733416
C           3.0848432     0.5323421     1.2035485
O           2.4602993     1.7046742     1.4788273
C           3.1261004     2.5687782     2.3838022
H           2.4804668     3.4411539     2.5007396
H           4.1020939     2.8886759     1.9924471
H           3.2715633     2.0910822     3.3622415
C           2.5513557    -0.4208981     0.3395463
N           3.4787867    -1.4560049     0.2853891
H           3.3035471    -2.3357482    -0.1754226
C           4.5480510    -1.1774998     1.0830730
H           5.3671418    -1.8741410     1.1890038
C           4.3505238     0.0657206     1.6571799
H           5.0367871     0.5709417     2.3205698
O           0.1963335    -0.1833095     0.3373630
24
280_C8H12N2O2_1-0-16-17 (-30,) energy =    -571.9994650
C           1.2454022    -0.3805865    -0.3488530
N           1.1774169    -1.0779518    -1.5638545
C          -0.1626173    -1.2653244    -2.1078777
H          -0.8599167    -1.4594831    -1.2931738
H          -0.1504478    -2.1166075    -2.7976060
H          -0.5141522    -0.3764484    -2.6529239
C           2.2094630    -0.9357267    -2.5884276
H           2.3362439    -1.8783924    -3.1359541
H           3.1631861    -0.6573806    -2.1409405
H           1.9342601    -0.1578940    -3.3178410
C           3.0855373     0.5594642     1.2284177
O           2.4625395     1.7162642     1.5554121
C           3.1402433     2.5530727     2.4779924
H           2.4968933     3.4221195     2.6267897
H           4.1123036     2.8822333     2.0851010
H           3.2949916     2.0468830     3.4404963
C           2.5548716    -0.3581841     0.3204264
N           3.4930793    -1.3808267     0.2133024
H           3.3048745    -2.2508884    -0.2610702
C           4.5532148    -1.1389542     1.0327548
H           5.3722450    -1.8391631     1.1139498
C           4.3494618     0.0744906     1.6660221
H           5.0313474     0.5490421     2.3559303
O           0.2442781     0.1054950     0.1671021
24
280_C8H12N2O2_1-0-16-17 (-15,) energy =    -571.9988210
C           1.2870293    -0.2753863    -0.4222248
N           1.1812811    -1.1185632    -1.5491410
C          -0.1759322    -1.2755777    -2.0641923
H          -0.8685266    -1.4078585    -1.2327774
H          -0.2046827    -2.1587932    -2.7117004
H          -0.5049473    -0.4008787    -2.6448784
C           2.1837957    -1.0489403    -2.6145748
H           2.2664210    -2.0189400    -3.1206195
H           3.1601148    -0.7770819    -2.2132822
H           1.9069395    -0.2972554    -3.3709113
C           3.0789509     0.5746372     1.2492489
O           2.4459505     1.7099160     1.6209667
C           3.1184649     2.5212270     2.5705915
H           2.4677374     3.3790950     2.7486058
H           4.0869201     2.8712566     2.1874628
H           3.2785557     1.9842525     3.5153169
C           2.5585394    -0.3158435     0.3049932
N           3.5182179    -1.3134509     0.1488394
H           3.3266421    -2.1806175    -0.3300522
C           4.5672487    -1.0957007     0.9885123
H           5.3936431    -1.7897143     1.0463287
C           4.3453210     0.0853623     1.6741675
H           5.0179154     0.5376033     2.3876896
O           0.3213839     0.3558058    -0.0056129
24
280_C8H12N2O2_1-0-16-17 (0,) energy =    -571.9965200
C           1.6186932     0.0407285    -0.6380252
N           1.5527283    -0.8351954    -1.7520694
C           0.4195832    -0.5818076    -2.6392174
H           0.3322914     0.4891429    -2.8244503
H          -0.5328505    -0.9325965    -2.2146589
H           0.5971868    -1.1038394    -3.5858639
C           1.7733547    -2.2698682    -1.5414948
H           2.4925850    -2.4416265    -0.7400979
H           2.1498532    -2.7342580    -2.4615582
H           0.8367949    -2.7808177    -1.2656470
C           3.2131612     0.7646980     1.2643877
O           2.3275608     1.5208314     1.9483789
C           2.7982141     2.1053408     3.1526784
H           1.9585141     2.6704000     3.5607722
H           3.6390624     2.7869633     2.9660691
H           3.1093326     1.3399492     3.8767331
C           2.8985301     0.1067408     0.0685304
N           4.0369542    -0.6216970    -0.2751782
H           4.1679236    -1.0178957    -1.1938805
C           5.0405316    -0.3754680     0.6108914
H           6.0237357    -0.8038091     0.4769689
C           4.5620059     0.4634855     1.6006596
H           5.1167622     0.8071352     2.4609394
O           0.7062308     0.8222915    -0.3922847
24
280_C8H12N2O2_1-0-16-17 (15,) energy =    -571.9988215
C           1.6621839     0.1340681    -0.7388450
N           1.5454014    -0.8503253    -1.7447102
C           0.4400036    -0.6379158    -2.6747928
H           0.3938380     0.4154361    -2.9517726
H          -0.5308189    -0.9177702    -2.2392123
H           0.6130624    -1.2467532    -3.5689620
C           1.7350668    -2.2635599    -1.4096604
H           2.4639805    -2.3792784    -0.6074966
H           2.0867406    -2.8164560    -2.2896345
H           0.7902600    -2.7235189    -1.0785932
C           3.2141090     0.7526742     1.2452455
O           2.3113659     1.4639962     1.9571636
C           2.7681515     2.0068705     3.1855785
H           1.9185177     2.5421408     3.6129737
H           3.5987251     2.7085712     3.0299374
H           3.0892158     1.2181237     3.8798525
C           2.9105638     0.1346452     0.0280680
N           4.0650888    -0.5430182    -0.3564051
H           4.1872495    -0.9260226    -1.2817992
C           5.0633631    -0.3237437     0.5422135
H           6.0538101    -0.7287871     0.3910282
C           4.5674328     0.4589651     1.5699783
H           5.1156448     0.7733163     2.4455754
O           0.8181866     1.0141231    -0.6070225
24
280_C8H12N2O2_1-0-16-17 (30,) energy =    -571.9994649
C           1.7152474     0.1943336    -0.8230749
N           1.5101320    -0.8741366    -1.7082944
C           0.4197528    -0.7010022    -2.6611102
H           0.3934414     0.3355753    -2.9965333
H          -0.5578969    -0.9403569    -2.2165356
H           0.5869104    -1.3644690    -3.5169120
C           1.7120159    -2.2613109    -1.2959706
H           2.4325764    -2.3216063    -0.4808054
H           2.0789980    -2.8608783    -2.1388075
H           0.7674033    -2.7099529    -0.9506418
C           3.2088286     0.7249002     1.2375162
O           2.2795624     1.3923158     1.9614711
C           2.7141139     1.9187325     3.2043188
H           1.8483979     2.4218834     3.6386577
H           3.5269736     2.6453144     3.0704222
H           3.0518361     1.1232815     3.8831640
C           2.9297849     0.1341038     0.0040419
N           4.1076321    -0.4875542    -0.4006243
H           4.2384373    -0.8652066    -1.3267868
C           5.0926170    -0.2787404     0.5158345
H           6.0929849    -0.6573073     0.3620896
C           4.5660507     0.4527897     1.5659672
H           5.0977704     0.7499599     2.4576677
O           0.9667685     1.1661098    -0.8082108
24
280_C8H12N2O2_1-0-16-17 (45,) energy =    -571.9987450
C           1.7901724     0.2676854    -0.9290471
N           1.4598704    -0.8586637    -1.6794225
C           0.3829244    -0.7103772    -2.6488968
H           0.3696730     0.3161786    -3.0136301
H          -0.5984023    -0.9296700    -2.2023717
H           0.5477439    -1.4025802    -3.4826689
C           1.6679273    -2.2218868    -1.2076388
H           2.3818505    -2.2378916    -0.3847830
H           2.0444234    -2.8592637    -2.0186510
H           0.7221653    -2.6570496    -0.8505046
C           3.2126993     0.7023039     1.2082068
O           2.2505049     1.3266681     1.9324543
C           2.6526699     1.8441678     3.1891959
H           1.7691334     2.3210805     3.6175356
H           3.4509445     2.5907726     3.0794867
H           2.9977170     1.0467576     3.8623502
C           2.9713552     0.1494181    -0.0471352
N           4.1718568    -0.4221739    -0.4553112
H           4.3237375    -0.7955498    -1.3797180
C           5.1330956    -0.2351215     0.4924290
H           6.1426322    -0.5918631     0.3474725
C           4.5680505     0.4440404     1.5571699
H           5.0737535     0.7175728     2.4713550
O           1.1675006     1.3191583    -1.0372701
24
280_C8H12N2O2_1-0-16-17 (60,) energy =    -571.9972476
C           1.8726799     0.3287907    -1.0235194
N           1.3903361    -0.8263693    -1.6163989
C           0.3153043    -0.6998027    -2.5888833
H           0.2989263     0.3234326    -2.9621959
H          -0.6610961    -0.9229282    -2.1347576
H           0.4790302    -1.4005733    -3.4166825
C           1.6090065    -2.1676278    -1.0983948
H           2.3288367    -2.1456415    -0.2807319
H           1.9819677    -2.8367703    -1.8860663
H           0.6668765    -2.5892742    -0.7187865
C           3.2327161     0.6770267     1.1744287
O           2.2350959     1.2503821     1.8983370
C           2.6026047     1.7604006     3.1681489
H           1.6994819     2.2053732     3.5903154
H           3.3808962     2.5308843     3.0821553
H           2.9601193     0.9633625     3.8354651
C           3.0324861     0.1714278    -0.1042053
N           4.2542596    -0.3492309    -0.5119090
H           4.4338464    -0.6984874    -1.4406022
C           5.1912146    -0.1841362     0.4665777
H           6.2101686    -0.5164746     0.3307422
C           4.5865076     0.4357695     1.5445436
H           5.0645309     0.6824284     2.4811107
O           1.3906735     1.4315025    -1.2625764
24
280_C8H12N2O2_1-0-16-17 (75,) energy =    -571.9958205
C           1.9986161     0.2925126    -1.1444181
N           1.3728425    -0.8694004    -1.5468469
C           0.2928674    -0.7820848    -2.5175879
H           0.2931995     0.2190235    -2.9468402
H          -0.6797399    -0.9658062    -2.0397363
H           0.4346603    -1.5302526    -3.3078445
C           1.5556701    -2.1670580    -0.9193897
H           2.3183942    -2.1058463    -0.1436186
H           1.8569123    -2.9203070    -1.6606308
H           0.6162865    -2.5046396    -0.4590760
C           3.2642170     0.5842095     1.1256611
O           2.2131559     1.0870244     1.8323258
C           2.5132904     1.5687763     3.1302611
H           1.5781161     1.9623154     3.5336592
H           3.2615829     2.3724688     3.0981366
H           2.8798354     0.7651138     3.7847617
C           3.1355070     0.1431589    -0.1821892
N           4.3853565    -0.3193750    -0.5649522
H           4.6136928    -0.6223977    -1.4990877
C           5.2784584    -0.1764513     0.4600545
H           6.3110968    -0.4740732     0.3507128
C           4.6108925     0.3693811     1.5398772
H           5.0426609     0.5871025     2.5057266
O           1.6638566     1.3956415    -1.5649838
24
280_C8H12N2O2_1-0-16-17 (90,) energy =    -571.9956854
C           2.1441701     0.3058762    -1.2950416
N           1.3861273    -0.8271457    -1.4812917
C           0.2988729    -0.7936436    -2.4478744
H           0.3696636     0.1335223    -3.0149305
H          -0.6751652    -0.8354609    -1.9409722
H           0.3708250    -1.6532567    -3.1263461
C           1.4630739    -2.0213389    -0.6572948
H           2.2922632    -1.9407578     0.0445859
H           1.6106935    -2.9092706    -1.2867783
H           0.5332938    -2.1596689    -0.0879150
C           3.2979606     0.5436581     1.0547868
O           2.1853141     0.9300635     1.7461168
C           2.4021657     1.3423886     3.0840341
H           1.4289034     1.6518900     3.4704949
H           3.0998852     2.1893726     3.1357315
H           2.7915245     0.5208716     3.7021915
C           3.2549121     0.2184273    -0.2896163
N           4.5331021    -0.1778829    -0.6422991
H           4.8224237    -0.3629695    -1.5905335
C           5.3731234    -0.0759053     0.4335927
H           6.4219399    -0.3205484     0.3507829
C           4.6346176     0.3582293     1.5170000
H           5.0109364     0.5160482     2.5171687
O           1.9729189     1.3269915    -1.9560393
24
280_C8H12N2O2_1-0-16-17 (105,) energy =    -571.9981693
C           2.2446191     0.2632287    -1.4791724
N           1.3709384    -0.7988890    -1.4848448
C           0.2900563    -0.8065888    -2.4601576
H           0.4585970     0.0038714    -3.1677003
H          -0.6823821    -0.6666725    -1.9675259
H           0.2712588    -1.7659808    -2.9923285
C           1.2859277    -1.8102051    -0.4439106
H           2.1981982    -1.8170195     0.1508077
H           1.1560276    -2.7967286    -0.9061624
H           0.4325224    -1.6277650     0.2238725
C           3.3033668     0.4794111     0.9323241
O           2.1488122     0.7305618     1.6185229
C           2.3019288     1.0360876     2.9942313
H           1.3000796     1.2447705     3.3751372
H           2.9379781     1.9195817     3.1401894
H           2.7315765     0.1908562     3.5502730
C           3.3165767     0.2696369    -0.4368582
N           4.6233019    -0.0309411    -0.7768922
H           4.9419618    -0.1002895    -1.7318386
C           5.4273234     0.0433968     0.3258822
H           6.4909342    -0.1323403     0.2575879
C           4.6371215     0.3491672     1.4180603
H           4.9790157     0.4556097     2.4372289
O           2.2437360     1.1171695    -2.3666421
24
280_C8H12N2O2_1-0-16-17 (120,) energy =    -572.0022540
C           2.3292962     0.1632268    -1.5161989
N           1.3477492    -0.7946963    -1.4322233
C           0.3078518    -0.8169663    -2.4506044
H           0.5559119    -0.0793614    -3.2123701
H          -0.6719133    -0.5811535    -2.0123792
H           0.2486882    -1.8124152    -2.9091729
C           1.1544512    -1.6997966    -0.3116006
H           2.0715471    -1.7808020     0.2700971
H           0.8932126    -2.6927831    -0.6978122
H           0.3473372    -1.3618922     0.3519195
C           3.3093237     0.4218541     0.9427798
O           2.1406879     0.5874770     1.6294867
C           2.2704827     0.8745900     3.0121279
H           1.2562050     1.0108173     3.3927452
H           2.8478356     1.7940990     3.1770877
H           2.7524391     0.0478168     3.5523560
C           3.3459036     0.2351532    -0.4330115
N           4.6765792     0.0595578    -0.7677108
H           4.9910004     0.0456536    -1.7269624
C           5.4645987     0.1782770     0.3384452
H           6.5394935     0.0901142     0.2764282
C           4.6462553     0.3967174     1.4326675
H           4.9740268     0.5147192     2.4551366
O           2.4761871     0.8638562    -2.5225134
24
280_C8H12N2O2_1-0-16-17 (135,) energy =    -572.0061333
C           2.3903070     0.0483536    -1.5465917
N           1.3010478    -0.7727062    -1.3933356
C           0.2938551    -0.7965648    -2.4429549
H           0.5775309    -0.0792549    -3.2116434
H          -0.6918786    -0.5364254    -2.0344661
H           0.2272105    -1.7975205    -2.8904325
C           1.0444387    -1.6294779    -0.2485306
H           1.9508615    -1.7527538     0.3417799
H           0.7235876    -2.6153537    -0.6087698
H           0.2576096    -1.2232266     0.3997517
C           3.3355566     0.3707818     0.9342346
O           2.1712977     0.4773349     1.6376210
C           2.3047883     0.7849170     3.0159353
H           1.2899998     0.8575229     3.4121511
H           2.8230002     1.7417949     3.1632206
H           2.8488636    -0.0036110     3.5538567
C           3.3715905     0.1665769    -0.4435962
N           4.7099718     0.1102807    -0.7898621
H           5.0011856     0.1085916    -1.7569793
C           5.4957868     0.2953135     0.3038113
H           6.5737186     0.2940077     0.2311254
C           4.6743746     0.4547103     1.4077191
H           5.0031760     0.6080319     2.4250737
O           2.6403915     0.6097772    -2.6209018
24
280_C8H12N2O2_1-0-16-17 (150,) energy =    -572.0087414
C           2.4628054    -0.0865116    -1.5554837
N           1.2733978    -0.7498275    -1.3879313
C           0.3336467    -0.7731453    -2.4978513
H           0.6548835    -0.0495208    -3.2455119
H          -0.6730953    -0.5220623    -2.1404420
H           0.2958576    -1.7691964    -2.9617745
C           0.9304805    -1.5912159    -0.2540962
H           1.7956926    -1.7333174     0.3899678
H           0.6041907    -2.5729935    -0.6233989
H           0.1189156    -1.1583647     0.3437442
C           3.3134234     0.3053448     0.9619753
O           2.1388599     0.3472610     1.6529561
C           2.2361916     0.6970507     3.0246682
H           1.2142076     0.7117368     3.4084040
H           2.6884629     1.6894002     3.1521212
H           2.8248768    -0.0404163     3.5870966
C           3.3872200     0.0752476    -0.4144738
N           4.7314271     0.1380913    -0.7386328
H           5.0247168     0.1408537    -1.7057645
C           5.4812442     0.4001140     0.3603072
H           6.5569369     0.4850002     0.3043311
C           4.6326637     0.5039848     1.4517021
H           4.9325617     0.6977748     2.4709914
O           2.8192866     0.3444339    -2.6616494
24
280_C8H12N2O2_1-0-16-17 (165,) energy =    -572.0096002
C           2.5164388    -0.2205715    -1.5538524
N           1.2408049    -0.6975183    -1.3702781
C           0.3642886    -0.7283558    -2.5318812
H           0.6827637     0.0331015    -3.2424169
H          -0.6654888    -0.5338713    -2.2104802
H           0.3922769    -1.7066652    -3.0345117
C           0.8256069    -1.5459894    -0.2639082
H           1.6245616    -1.6489415     0.4651915
H           0.5645886    -2.5444440    -0.6443784
H          -0.0528215    -1.1305067     0.2445852
C           3.3378951     0.2475675     0.9715035
O           2.1741557     0.2260148     1.6803522
C           2.2660408     0.6132435     3.0428598
H           1.2508500     0.5650066     3.4414390
H           2.6492177     1.6373695     3.1407126
H           2.9128445    -0.0684362     3.6113360
C           3.4170399    -0.0131260    -0.4027907
N           4.7506480     0.1519338    -0.7380642
H           5.0282084     0.1395214    -1.7104074
C           5.4873344     0.4877838     0.3460464
H           6.5529284     0.6537135     0.2781626
C           4.6420219     0.5502138     1.4441715
H           4.9347605     0.7869486     2.4563778
O           2.9398991     0.0724391    -2.6822506
24
280_C8H12N2O2_1-0-16-17 (180,) energy =    -572.0086202
C           2.5341999    -0.3455553    -1.5457088
N           1.1968309    -0.6337076    -1.3791278
C           0.4024008    -0.7133791    -2.5991722
H           0.7497580     0.0346639    -3.3107557
H          -0.6464836    -0.5275963    -2.3446528
H           0.4779114    -1.7023603    -3.0754770
C           0.6710805    -1.4272879    -0.2757152
H           1.3426790    -1.4080368     0.5772043
H           0.5210093    -2.4708020    -0.5934471
H          -0.2975443    -1.0265835     0.0460686
C           3.3623249     0.2178282     0.9776727
O           2.2305372     0.1282168     1.7315896
C           2.3532872     0.5019009     3.0959294
H           1.3603529     0.3820385     3.5333539
H           2.6723524     1.5475580     3.1936126
H           3.0661714    -0.1437576     3.6255500
C           3.4217087    -0.0665564    -0.3962644
N           4.7303355     0.2008944    -0.7675334
H           4.9841861     0.1521039    -1.7458030
C           5.4698130     0.6036935     0.2881834
H           6.5170920     0.8498806     0.1867338
C           4.6520672     0.6211035     1.4089113
H           4.9524948     0.8971958     2.4087154
O           3.0157679    -0.2139168    -2.6818874
