19
242_C7H8N2O2_0-2-8-9 (-165,) energy =    -531.5282576
N           1.1814500    -1.2941993     0.4683413
H           1.1728769    -0.4591606     1.0404304
C           2.1228648    -1.3685150    -0.5304269
C           5.7222658     0.8618848     0.1981263
H           6.6217903     1.4265911     0.4161292
C           4.8495837     0.5834784     1.3278209
N           3.6926882    -0.1440615     0.9666190
H           3.1459502    -0.4548139     1.7617045
C           3.3891165    -0.5935406    -0.2960714
C           4.2530365    -0.3429982    -1.3245703
H           4.0063501    -0.7048938    -2.3140896
C           5.4366725     0.4048030    -1.0565788
H           6.1219123     0.6132287    -1.8744527
O           1.9775650    -2.0591305    -1.5305945
C          -0.0984463    -1.9719601     0.2974138
H          -0.7421295    -1.4650276    -0.4326300
H          -0.6082294    -2.0147988     1.2628472
H           0.0876471    -2.9855631    -0.0603769
O           5.0347958     0.8975392     2.4983543
19
242_C7H8N2O2_0-2-8-9 (-150,) energy =    -531.5286183
N           1.1693670    -1.2500389     0.3951669
H           1.1826475    -0.3667063     0.8886861
C           2.1765216    -1.4897073    -0.5063435
C           5.6766300     0.8989184     0.1839116
H           6.5456807     1.5119430     0.3948746
C           4.8595475     0.5297242     1.3289839
N           3.7377809    -0.2551116     0.9754031
H           3.2120921    -0.6054730     1.7689722
C           3.4281910    -0.6858940    -0.2914386
C           4.2317450    -0.3357936    -1.3391598
H           3.9776890    -0.6766564    -2.3344565
C           5.3754766     0.4748405    -1.0789168
H           6.0160467     0.7606597    -1.9095607
O           2.0830762    -2.2999399    -1.4185086
C          -0.1226604    -1.9052687     0.2386271
H          -0.7269755    -1.4433752    -0.5525322
H          -0.6667099    -1.8543625     1.1850082
H           0.0464771    -2.9493595    -0.0281484
O           5.0583902     0.8206004     2.5031667
19
242_C7H8N2O2_0-2-8-9 (-135,) energy =    -531.5273856
N           0.9913129    -1.2098366     0.1738444
H           1.0238412    -0.2928049     0.5991686
C           2.0702354    -1.6152674    -0.5670507
C           5.4884277     0.8883938     0.1268067
H           6.3308308     1.5365105     0.3408646
C           4.7037155     0.4576408     1.2723522
N           3.6142375    -0.3701623     0.9128531
H           3.0919558    -0.7364235     1.7018156
C           3.3121169    -0.7907350    -0.3581902
C           4.0755537    -0.3687046    -1.4093112
H           3.8261595    -0.6946108    -2.4109889
C           5.1851377     0.4866071    -1.1429487
H           5.7968219     0.8265643    -1.9750405
O           2.0395855    -2.5485717    -1.3572181
C          -0.3098066    -1.8424881     0.0129050
H          -0.8842306    -1.3960755    -0.8088354
H          -0.8790347    -1.7478092     0.9415000
H          -0.1521953    -2.8977873    -0.2129252
O           4.8977759     0.7367620     2.4501819
19
242_C7H8N2O2_0-2-8-9 (-120,) energy =    -531.5250466
N           0.9958505    -1.1511880     0.1402122
H           1.0524781    -0.2060865     0.4945043
C           2.1148958    -1.7024040    -0.4207296
C           5.5056424     0.8755133     0.1494354
H           6.3405729     1.5411902     0.3371152
C           4.7868614     0.4024404     1.3201350
N           3.7023724    -0.4468657     0.9929585
H           3.2113137    -0.8210781     1.7981540
C           3.3518877    -0.8502028    -0.2699658
C           4.0478611    -0.3801165    -1.3472452
H           3.7635172    -0.6883359    -2.3454617
C           5.1481594     0.4967263    -1.1134297
H           5.7083775     0.8730391    -1.9659520
O           2.1285905    -2.7620246    -1.0310301
C          -0.3106707    -1.7834449     0.0464279
H          -0.9634191    -1.2490403    -0.6542178
H          -0.7935825    -1.8166732     1.0285810
H          -0.1587264    -2.7994988    -0.3191913
O           5.0233519     0.6661226     2.4937975
19
242_C7H8N2O2_0-2-8-9 (-105,) energy =    -531.5228080
N           0.7980255    -1.4194173     0.0704090
H           0.8013505    -0.4190779     0.2154153
C           1.9832629    -2.0352513    -0.2111066
C           5.3310790     0.6319610     0.2233446
H           6.1657645     1.3048426     0.3842976
C           4.6626585     0.1430739     1.4164851
N           3.5786669    -0.7205132     1.1240926
H           3.1143701    -1.0937158     1.9454413
C           3.1807903    -1.1115505    -0.1264706
C           3.8280650    -0.6258112    -1.2270334
H           3.5144224    -0.9275957    -2.2187553
C           4.9277905     0.2607731    -1.0278940
H           5.4514386     0.6491089    -1.8981944
O           2.0956310    -3.2144589    -0.5138141
C          -0.4778732    -2.1156047     0.0128787
H          -1.0733658    -1.7864367    -0.8469864
H          -1.0515653    -1.9450436     0.9298341
H          -0.2664873    -3.1804416    -0.0906296
O           4.9361428     0.4048047     2.5825024
19
242_C7H8N2O2_0-2-8-9 (-90,) energy =    -531.5225828
N           0.7444192    -1.3900597    -0.0516406
H           0.7107385    -0.3823226    -0.1221160
C           1.9669090    -1.9914644    -0.0725026
C           5.3878805     0.6016734     0.2117770
H           6.2643880     1.2270785     0.3382741
C           4.8045692     0.0601411     1.4271396
N           3.6666740    -0.7455598     1.1808816
H           3.2679383    -1.1661284     2.0137231
C           3.1313057    -1.0200257    -0.0474720
C           3.7107861    -0.5009224    -1.1710745
H           3.3030437    -0.7264304    -2.1491203
C           4.8630651     0.3270733    -1.0184237
H           5.3304297     0.7435574    -1.9075811
O           2.1463059    -3.2012069    -0.0576086
C          -0.5007723    -2.1416109    -0.0851245
H          -1.0087511    -2.0323460    -1.0507134
H          -1.1727143    -1.8053475     0.7112165
H          -0.2540246    -3.1927437     0.0686535
O           5.1920087     0.2344368     2.5769024
19
242_C7H8N2O2_0-2-8-9 (-75,) energy =    -531.5248382
N           0.7194737    -1.3885616    -0.1539507
H           0.6840649    -0.4060410    -0.3880649
C           1.9417090    -1.9457308     0.0694405
C           5.4037931     0.5882660     0.2037630
H           6.3057247     1.1832273     0.2931083
C           4.9032696    -0.0058909     1.4332348
N           3.7313563    -0.7721017     1.2365643
H           3.4004011    -1.2576719     2.0639221
C           3.0875721    -0.9578865     0.0455053
C           3.5998367    -0.4061388    -1.0963410
H           3.1156005    -0.5760677    -2.0507059
C           4.7826069     0.3866681    -0.9946270
H           5.1958935     0.8306429    -1.8971493
O           2.1288918    -3.1212366     0.3555565
C          -0.5063884    -2.1705497    -0.1877441
H          -0.9101303    -2.2411483    -1.2048183
H          -1.2627962    -1.7237159     0.4656358
H          -0.2661034    -3.1724699     0.1699795
O           5.3902034     0.0959046     2.5532119
19
242_C7H8N2O2_0-2-8-9 (-60,) energy =    -531.5281482
N           0.7268501    -1.3972042    -0.2338971
H           0.7161263    -0.4564559    -0.6025945
C           1.9174690    -1.9015641     0.1922469
C           5.4145823     0.5746083     0.1762701
H           6.3303570     1.1526464     0.2287114
C           4.9916737    -0.0695530     1.4115616
N           3.7981275    -0.8095992     1.2637739
H           3.5168418    -1.3466831     2.0781989
C           3.0696464    -0.9306870     0.1156191
C           3.5129035    -0.3406663    -1.0370741
H           2.9660070    -0.4707119    -1.9635654
C           4.7117099     0.4328140    -0.9847486
H           5.0708026     0.9078328    -1.8945902
O           2.0645762    -3.0116279     0.6906753
C          -0.4925485    -2.1882553    -0.2710069
H          -0.7983665    -2.4076941    -1.3010027
H          -1.3061659    -1.6604910     0.2372263
H          -0.2909409    -3.1258363     0.2484413
O           5.5619924    -0.0253067     2.4950324
19
242_C7H8N2O2_0-2-8-9 (-45,) energy =    -531.5311491
N           0.7529032    -1.4247153    -0.3128624
H           0.7634627    -0.5257134    -0.7731090
C           1.8954472    -1.8497960     0.2917185
C           5.4260133     0.5684902     0.1648202
H           6.3491437     1.1364117     0.1941160
C           5.0588417    -0.1226186     1.3938971
N           3.8508696    -0.8410972     1.2774855
H           3.5922286    -1.4140787     2.0758048
C           3.0675642    -0.9130169     0.1630495
C           3.4582033    -0.2823388    -0.9877451
H           2.8732511    -0.3781730    -1.8948985
C           4.6659117     0.4786607    -0.9647280
H           4.9848194     0.9856919    -1.8722059
O           1.9867574    -2.8723979     0.9639960
C          -0.4724336    -2.2065228    -0.3119635
H          -0.7256438    -2.5542393    -1.3205463
H          -1.3061055    -1.6143223     0.0799824
H          -0.3101337    -3.0703523     0.3337177
O           5.6874528    -0.1279913     2.4454214
19
242_C7H8N2O2_0-2-8-9 (-30,) energy =    -531.5330825
N           1.4805501    -1.5361128    -0.5761591
H           2.2046459    -1.8449154    -1.2083141
C           1.7436816    -0.4781878     0.2371094
C           5.6588105     1.2464755     0.3874260
H           6.6174540     1.7471234     0.4646088
C           4.4847108     2.0579654     0.6824761
N           3.2797335     1.3371450     0.5614611
H           2.4256147     1.8232412     0.8232452
C           3.1630270     0.0243010     0.2137943
C           4.2865292    -0.7202080    -0.0301170
H           4.2168395    -1.7786840    -0.2508295
C           5.5560201    -0.0739946     0.0589263
H           6.4552132    -0.6547069    -0.1320196
O           0.9019441     0.0878228     0.9299889
C           0.1606130    -2.1369488    -0.6734634
H           0.2077908    -3.2134364    -0.4756880
H          -0.2743774    -1.9759496    -1.6667282
H          -0.4744988    -1.6594602     0.0731947
O           4.4764412     3.2384331     1.0097117
19
242_C7H8N2O2_0-2-8-9 (-15,) energy =    -531.5337942
N           1.5160576    -1.6527938    -0.5105590
H           2.2606652    -2.0484246    -1.0651763
C           1.7420017    -0.4770904     0.1338550
C           5.6538794     1.2472306     0.3787922
H           6.6079181     1.7543266     0.4696559
C           4.4724243     2.0356731     0.7061103
N           3.2760588     1.3079195     0.5594401
H           2.4087924     1.7792594     0.8075520
C           3.1690435     0.0064505     0.1691913
C           4.2990213    -0.7141642    -0.1147895
H           4.2480714    -1.7633210    -0.3800566
C           5.5620904    -0.0594638    -0.0036481
H           6.4654166    -0.6225386    -0.2252806
O           0.8595481     0.1896065     0.6702342
C           0.1811432    -2.2132814    -0.6455756
H           0.2113727    -3.2960950    -0.4900589
H          -0.2471156    -2.0058015    -1.6341975
H          -0.4532999    -1.7538227     0.1126807
O           4.4541608     3.2038883     1.0746854
19
242_C7H8N2O2_0-2-8-9 (0,) energy =    -531.5337166
N           1.5119125    -1.6808245    -0.4889664
H           2.2914467    -2.2540073    -0.7732307
C           1.7497036    -0.4476040     0.0276460
C           5.6862775     1.2057505     0.3894334
H           6.6453885     1.6952516     0.5162225
C           4.5162194     1.9560764     0.8276913
N           3.3143216     1.2519647     0.6277573
H           2.4482247     1.7081199     0.9081723
C           3.1881434     0.0053741     0.0913423
C           4.3075320    -0.6750112    -0.3103639
H           4.2508487    -1.6655329    -0.7456922
C           5.5765912    -0.0429929    -0.1496129
H           6.4699601    -0.5755564    -0.4664711
O           0.8638174     0.3038875     0.4317677
C           0.1728005    -2.2372776    -0.5906008
H           0.0436933    -3.0881825     0.0888604
H          -0.0307922    -2.5658630    -1.6154127
H          -0.5326734    -1.4530066    -0.3156404
O           4.5117830     3.0770981     1.3220353
19
242_C7H8N2O2_0-2-8-9 (15,) energy =    -531.5337873
N           1.5222553    -1.6948382    -0.4246486
H           2.3112386    -2.3233825    -0.4524351
C           1.7352963    -0.3993168    -0.0720689
C           5.6823461     1.1854240     0.4266810
H           6.6460502     1.6554510     0.5877083
C           4.5205965     1.9139446     0.9208248
N           3.3108224     1.2353851     0.6792745
H           2.4498120     1.6994917     0.9607221
C           3.1734835     0.0369602     0.0449112
C           4.2828044    -0.6147488    -0.4257226
H           4.2014597    -1.5446886    -0.9755758
C           5.5590148    -0.0110584    -0.2177456
H           6.4458173    -0.5196460    -0.5880227
O           0.8353810     0.4065178     0.1559111
C           0.1867289    -2.2541904    -0.5553868
H          -0.0309587    -2.9600346     0.2551136
H           0.0787425    -2.7699642    -1.5154588
H          -0.5238312    -1.4289153    -0.5053539
O           4.5277888     2.9986252     1.4903017
19
242_C7H8N2O2_0-2-8-9 (30,) energy =    -531.5330821
N           1.5332784    -1.7108211    -0.3407541
H           2.3171808    -2.3374783    -0.2307310
C           1.7443597    -0.3785965    -0.1652273
C           5.6974379     1.1483463     0.4406464
H           6.6645073     1.6047583     0.6196872
C           4.5438091     1.8529752     0.9857686
N           3.3265096     1.1977652     0.7135562
H           2.4751744     1.6714052     1.0054063
C           3.1807139     0.0345432     0.0176488
C           4.2808417    -0.5886240    -0.5088085
H           4.1794376    -1.4819043    -1.1135427
C           5.5624717    -0.0049503    -0.2759769
H           6.4432632    -0.4910713    -0.6884399
O           0.8502085     0.4619111    -0.1113810
C           0.2055780    -2.2731166    -0.5245053
H          -0.0885345    -2.8841783     0.3369363
H           0.1678704    -2.8905936    -1.4284953
H          -0.4935014    -1.4423157    -0.6239117
O           4.5610209     2.9036611     1.6155250
19
242_C7H8N2O2_0-2-8-9 (45,) energy =    -531.5311446
N           1.5393857    -1.7568657    -0.2440680
H           2.3204073    -2.3670412    -0.0493960
C           1.7653600    -0.4153389    -0.2723457
C           5.6894797     1.1265947     0.4720106
H           6.6489290     1.5897517     0.6732584
C           4.5240677     1.7935314     1.0376107
N           3.3146905     1.1359304     0.7305633
H           2.4626009     1.6051832     1.0243729
C           3.1897244    -0.0049579    -0.0064226
C           4.3006406    -0.5882073    -0.5546649
H           4.2080780    -1.4624943    -1.1882320
C           5.5737064     0.0017787    -0.2917203
H           6.4629463    -0.4543465    -0.7201098
O           0.8911531     0.4330299    -0.4207852
C           0.2355813    -2.3387889    -0.5168794
H          -0.0662096    -3.0042433     0.2987758
H           0.2383539    -2.9048123    -1.4560459
H          -0.4795982    -1.5192229    -0.5957068
O           4.5219111     2.8186169     1.7084064
19
242_C7H8N2O2_0-2-8-9 (60,) energy =    -531.5281483
N           1.5149003    -1.7399718    -0.1710618
H           2.2699286    -2.3346234     0.1409913
C           1.7875449    -0.4237908    -0.3875726
C           5.6866446     1.1219149     0.4895943
H           6.6395141     1.5859134     0.7182141
C           4.5142990     1.7298448     1.1025819
N           3.3116849     1.0776103     0.7527428
H           2.4630214     1.5234918     1.0871478
C           3.2018713    -0.0168489    -0.0557864
C           4.3199392    -0.5435775    -0.6438154
H           4.2364372    -1.3829984    -1.3241014
C           5.5846353     0.0482311    -0.3464086
H           6.4792458    -0.3645652    -0.8064884
O           0.9588608     0.4111847    -0.7316746
C           0.2192699    -2.3317211    -0.4629658
H          -0.1577132    -2.8767717     0.4086614
H           0.2742203    -3.0181213    -1.3163761
H          -0.4659597    -1.5179201    -0.7031857
O           4.4960585     2.7052064     1.8438436
19
242_C7H8N2O2_0-2-8-9 (75,) energy =    -531.5248381
N           1.4850651    -1.7068167    -0.1034094
H           2.2000735    -2.2659780     0.3410082
C           1.8212037    -0.4523292    -0.5126482
C           5.6781368     1.1227756     0.5209610
H           6.6190592     1.5889983     0.7906710
C           4.4908639     1.6495239     1.1752232
N           3.3037313     0.9983369     0.7680154
H           2.4519894     1.3929180     1.1535953
C           3.2224209    -0.0293210    -0.1291527
C           4.3556655    -0.4834297    -0.7457484
H           4.2970258    -1.2747074    -1.4837254
C           5.6038029     0.1145603    -0.3958984
H           6.5101409    -0.2414457    -0.8799208
O           1.0567731     0.3274368    -1.0661152
C           0.1900174    -2.3053093    -0.3862871
H          -0.2583172    -2.6987679     0.5318642
H           0.2741802    -3.1171179    -1.1185714
H          -0.4505711    -1.5226516    -0.7944906
O           4.4427095     2.5586499     1.9955816
19
242_C7H8N2O2_0-2-8-9 (90,) energy =    -531.5225828
N           1.4612588    -1.6341263    -0.0320465
H           2.1308170    -2.1153447     0.5525418
C           1.8618670    -0.4897517    -0.6537412
C           5.6736740     1.1095988     0.5385158
H           6.6040467     1.5638527     0.8601749
C           4.4730246     1.5453241     1.2307450
N           3.3008465     0.9096422     0.7547938
H           2.4460878     1.2297166     1.1980044
C           3.2453567    -0.0202026    -0.2467770
C           4.3935113    -0.4010033    -0.8827528
H           4.3566387    -1.1248206    -1.6879871
C           5.6256023     0.1866340    -0.4664945
H           6.5435893    -0.1106260    -0.9679172
O           1.1739132     0.1552382    -1.4325878
C           0.1734167    -2.2591008    -0.2913967
H          -0.3489140    -2.4658645     0.6484368
H           0.2884398    -3.1959165    -0.8494170
H          -0.4158375    -1.5612217    -0.8873427
O           4.3969646     2.3660547     2.1379703
19
242_C7H8N2O2_0-2-8-9 (105,) energy =    -531.5228085
N           1.4323371    -1.5171434     0.0346449
H           2.0352731    -1.8496001     0.7746515
C           1.8998788    -0.5317072    -0.7860583
C           5.6559647     1.0616321     0.5819786
H           6.5776665     1.4827399     0.9673809
C           4.4434552     1.3998235     1.3062563
N           3.2854396     0.8052207     0.7478958
H           2.4240084     1.0496067     1.2250744
C           3.2501099     0.0138204    -0.3692259
C           4.4116136    -0.2904552    -1.0207463
H           4.3907973    -0.9201007    -1.9017055
C           5.6304874     0.2581282    -0.5223998
H           6.5589730     0.0241628    -1.0377441
O           1.3118603    -0.1180236    -1.7749133
C           0.1681813    -2.1972797    -0.2001943
H          -0.4442153    -2.1977123     0.7076240
H           0.3271164    -3.2327725    -0.5237558
H          -0.3538532    -1.6562367    -0.9901538
O           4.3450763     2.1068724     2.3029153
19
242_C7H8N2O2_0-2-8-9 (120,) energy =    -531.5250461
N           1.4033818    -1.4089796     0.1036467
H           1.9395414    -1.6197468     0.9343350
C           1.9656830    -0.5981963    -0.8435655
C           5.6669104     1.0472854     0.5924512
H           6.5814803     1.4615567     1.0015972
C           4.4538044     1.2963356     1.3522482
N           3.3070188     0.7101950     0.7641552
H           2.4421977     0.9060389     1.2573534
C           3.2780607     0.0140085    -0.4169496
C           4.4398778    -0.2047508    -1.1012136
H           4.4192286    -0.7652605    -2.0273250
C           5.6498526     0.3347242    -0.5729103
H           6.5782372     0.1665401    -1.1133436
O           1.4928349    -0.4071591    -1.9550466
C           0.1714406    -2.1440179    -0.1362580
H          -0.5290771    -2.0032605     0.6934915
H           0.3645804    -3.2161016    -0.2621268
H          -0.2694037    -1.7553303    -1.0547884
O           4.3486787     1.9274071     2.3980154
19
242_C7H8N2O2_0-2-8-9 (135,) energy =    -531.5273856
N           1.3486961    -1.3674415     0.0964931
H           1.8244532    -1.5492754     0.9702764
C           2.0494501    -0.7414464    -0.9007274
C           5.6729869     1.0180469     0.5852086
H           6.5708289     1.4586715     1.0038362
C           4.4545886     1.1871437     1.3601285
N           3.3309326     0.5721477     0.7595957
H           2.4570818     0.7335686     1.2492040
C           3.3251250    -0.0848964    -0.4453805
C           4.4890218    -0.2197445    -1.1474970
H           4.4808375    -0.7484633    -2.0920394
C           5.6784819     0.3522700    -0.6074385
H           6.6085043     0.2483239    -1.1609348
O           1.6990220    -0.7291950    -2.0726539
C           0.1450517    -2.1314062    -0.1978760
H          -0.5034969    -2.1442114     0.6821815
H           0.3756723    -3.1637498    -0.4904255
H          -0.3734701    -1.6480637    -1.0267358
O           4.3306105     1.7819018     2.4249022
19
242_C7H8N2O2_0-2-8-9 (150,) energy =    -531.5286173
N           1.3561803    -1.0865841     0.2254382
H           1.7701827    -1.2373557     1.1364386
C           2.1828208    -0.6661463    -0.7868610
C           5.7864545     1.1913618     0.6267591
H           6.6800414     1.6628099     1.0202406
C           4.5882588     1.3077848     1.4421678
N           3.4687330     0.6576480     0.8721404
H           2.6020166     0.8102758     1.3764134
C           3.4498008     0.0050453    -0.3358882
C           4.5913519    -0.0660109    -1.0829277
H           4.5674881    -0.5851770    -2.0322737
C           5.7758706     0.5442732    -0.5761071
H           6.6886490     0.4868968    -1.1639354
O           1.9208903    -0.8097870    -1.9734402
C           0.1389744    -1.8261411    -0.0818157
H          -0.5458253    -1.7599602     0.7674086
H           0.3416643    -2.8820079    -0.3023223
H          -0.3259040    -1.3775965    -0.9605941
O           4.4762145     1.8944564     2.5127077
19
242_C7H8N2O2_0-2-8-9 (165,) energy =    -531.5282564
N           1.2598035    -1.0242007     0.2589614
H           1.6071121    -1.1245182     1.2044610
C           2.1832396    -0.7898312    -0.7319878
C           5.7465778     1.2407164     0.5490667
H           6.6288780     1.7630133     0.9016305
C           4.5850951     1.2810561     1.4234134
N           3.4789208     0.5700877     0.9047628
H           2.6290769     0.6993345     1.4420118
C           3.4382672    -0.0823822    -0.3040916
C           4.5391848    -0.0665706    -1.1132242
H           4.4962451    -0.5795925    -2.0650542
C           5.7100911     0.6088722    -0.6609808
H           6.5905170     0.6161121    -1.2987009
O           1.9886573    -1.0848126    -1.9039215
C           0.0384021    -1.7544349    -0.0606868
H          -0.6636086    -1.6499424     0.7699324
H           0.2283438    -2.8191509    -0.2463289
H          -0.4005523    -1.3259350    -0.9628627
O           4.4914395     1.8596995     2.5002378
19
242_C7H8N2O2_0-2-8-9 (180,) energy =    -531.5264447
N           1.1986003    -1.3558266     0.5040762
H           1.1920658    -0.6141076     1.1920240
C           2.0737489    -1.2465870    -0.5499376
C           5.7650520     0.8298302     0.2140229
H           6.6908394     1.3478606     0.4376662
C           4.8405763     0.6598515     1.3229895
N           3.6539372    -0.0152987     0.9571941
H           3.0727705    -0.2401171     1.7555090
C           3.3563270    -0.5013621    -0.2938613
C           4.2715154    -0.3555503    -1.2989253
H           4.0322637    -0.7483449    -2.2781915
C           5.4907864     0.3297847    -1.0265393
H           6.2136391     0.4526022    -1.8292302
O           1.8760817    -1.7975519    -1.6257414
C          -0.0731968    -2.0422284     0.3028163
H          -0.7646332    -1.4626308    -0.3217897
H          -0.5311648    -2.2273998     1.2773147
H           0.1177349    -2.9937086    -0.1953805
O           5.0053738     1.0183857     2.4840380
