19
209_C5H8N2O3S_1-0-15-16 (-165,) energy =    -928.5995446
S           2.4480058    -1.9636225     0.2102343
N           3.8894838    -1.3747570     0.7816214
C           4.7106020    -0.5483699    -0.1127850
H           4.5934756    -0.9005805    -1.1373405
H           5.7570172    -0.6747698     0.1832210
H           4.4363420     0.5116562    -0.0490032
C           3.9753976    -1.0486654     2.2090386
H           3.3837760    -1.7635490     2.7811359
H           3.6306764    -0.0264007     2.4143221
H           5.0230063    -1.1424277     2.5120362
O           1.9218709    -2.9180482     1.1812722
O           2.6258999    -2.3137005    -1.1958369
C           0.4468413     1.3738250     0.3477899
H           0.3908620     2.4494403     0.4300081
N           1.6632083     0.7010722     0.3832947
C           1.3319372    -0.5461681     0.2625205
O           0.0048527    -0.7781603     0.1500299
C          -0.5556653     0.4705030     0.2032444
H          -1.6302079     0.5178082     0.1299044
19
209_C5H8N2O3S_1-0-15-16 (-150,) energy =    -928.5991496
S           2.4968450    -1.9661125     0.1682524
N           3.9208937    -1.3897536     0.8020060
C           4.7677010    -0.5417400    -0.0481168
H           4.7042894    -0.8890685    -1.0788954
H           5.8006698    -0.6520745     0.2971208
H           4.4715334     0.5129350     0.0066678
C           3.9354403    -1.0689323     2.2324599
H           3.3344353    -1.7985892     2.7756166
H           3.5614896    -0.0541251     2.4290579
H           4.9699396    -1.1404154     2.5822588
O           1.9494271    -2.9526667     1.0937847
O           2.7225809    -2.2677235    -1.2417521
C           0.4572940     1.3513640     0.2338125
H           0.3871305     2.4283369     0.1871030
N           1.6782801     0.6942031     0.1429332
C           1.3656053    -0.5601061     0.2402869
O           0.0453283    -0.8096716     0.3928816
C          -0.5308814     0.4322645     0.3820359
H          -1.6029762     0.4652572     0.4909469
19
209_C5H8N2O3S_1-0-15-16 (-135,) energy =    -928.5985959
S           2.4954829    -1.9570912     0.1093387
N           3.9107350    -1.4035800     0.7926967
C           4.7610784    -0.5168761    -0.0137227
H           4.7359334    -0.8417931    -1.0533219
H           5.7855653    -0.6101564     0.3603358
H           4.4391809     0.5301279     0.0527005
C           3.8803896    -1.1107010     2.2288104
H           3.2752281    -1.8589082     2.7410754
H           3.4875418    -0.1044937     2.4374677
H           4.9057392    -1.1730495     2.6058877
O           1.9241700    -2.9596502     1.0018971
O           2.7571673    -2.2255366    -1.3004903
C           0.4400745     1.3511437     0.0912426
H           0.3461200     2.4131018    -0.0834870
N           1.6346960     0.6783836    -0.1287828
C           1.3633480    -0.5507836     0.1819892
O           0.0942769    -0.7674337     0.5987916
C          -0.4927614     0.4668029     0.5299253
H          -1.5294167     0.5225996     0.8208060
19
209_C5H8N2O3S_1-0-15-16 (-120,) energy =    -928.5981691
S           2.4938528    -1.9624891     0.0527444
N           3.8956443    -1.4256722     0.7852704
C           4.7363673    -0.4904308     0.0258029
H           4.7565696    -0.7921878    -1.0208281
H           5.7508062    -0.5526081     0.4318158
H           4.3753627     0.5440443     0.1017902
C           3.8293441    -1.1782148     2.2288702
H           3.2265951    -1.9519350     2.7044672
H           3.4151175    -0.1856535     2.4632137
H           4.8475312    -1.2338025     2.6257848
O           1.9006434    -2.9804427     0.9123446
O           2.7952793    -2.1976190    -1.3539440
C           0.4146506     1.3286069    -0.0439001
H           0.2786221     2.3609519    -0.3319530
N           1.5590158     0.6211943    -0.3844352
C           1.3587721    -0.5582316     0.1159425
O           0.1849894    -0.7066582     0.7751386
C          -0.4175507     0.5156973     0.6578128
H          -1.3898252     0.6175220     1.1125721
19
209_C5H8N2O3S_1-0-15-16 (-105,) energy =    -928.5979689
S           2.4879256    -1.9637007     0.0153668
N           3.8709144    -1.4343366     0.7943806
C           4.6997388    -0.4554998     0.0795698
H           4.7580826    -0.7310593    -0.9728794
H           5.7042948    -0.4923093     0.5119570
H           4.3054148     0.5667647     0.1681452
C           3.7727041    -1.2348752     2.2437798
H           3.1786008    -2.0365037     2.6822412
H           3.3318212    -0.2603231     2.5045278
H           4.7846331    -1.2807465     2.6575054
O           1.8769936    -2.9934640     0.8479127
O           2.8287720    -2.1747337    -1.3850888
C           0.3797962     1.3034410    -0.1693109
H           0.1868755     2.2923520    -0.5593621
N           1.4529830     0.5428055    -0.6108540
C           1.3502023    -0.5626951     0.0588376
O           0.3114439    -0.6077497     0.9292890
C          -0.3110326     0.5988740     0.7647261
H          -1.1922525     0.7705313     1.3619022
19
209_C5H8N2O3S_1-0-15-16 (-90,) energy =    -928.5977675
S           2.5049972    -1.9596290    -0.0373969
N           3.8627557    -1.4292655     0.7870321
C           4.6845303    -0.4152793     0.1161882
H           4.7597465    -0.6535271    -0.9443493
H           5.6847255    -0.4498062     0.5586498
H           4.2758451     0.5990656     0.2350147
C           3.7382332    -1.2797850     2.2404018
H           3.1489750    -2.1041194     2.6413783
H           3.2772405    -0.3220310     2.5266347
H           4.7439595    -1.3247870     2.6692189
O           1.8900882    -3.0128906     0.7625844
O           2.8799221    -2.1359190    -1.4331191
C           0.3180658     1.2500693    -0.2827839
H           0.0379149     2.1804245    -0.7553012
N           1.3131064     0.4378478    -0.8083391
C           1.3513542    -0.5735573     0.0008813
O           0.4846897    -0.5034422     1.0441326
C          -0.1817244     0.6738642     0.8414074
H          -0.9475411     0.9227844     1.5585777
19
209_C5H8N2O3S_1-0-15-16 (-75,) energy =    -928.5973368
S           2.5216351    -1.9477923    -0.0629287
N           3.8541084    -1.4262029     0.8056087
C           4.6803091    -0.3865144     0.1827501
H           4.7685295    -0.5845538    -0.8852046
H           5.6760855    -0.4342434     0.6338939
H           4.2702027     0.6230491     0.3362363
C           3.7177570    -1.3409113     2.2629375
H           3.1314322    -2.1861303     2.6222453
H           3.2459912    -0.4010436     2.5863472
H           4.7208972    -1.3978424     2.6966594
O           1.9004338    -3.0239176     0.7017721
O           2.9273213    -2.0903312    -1.4532480
C           0.2131756     1.1726483    -0.3740959
H          -0.1840142     2.0183455    -0.9165770
N           1.1321231     0.3057817    -0.9502163
C           1.3546520    -0.5733269    -0.0263588
O           0.6845185    -0.3613348     1.1380789
C          -0.0531849     0.7652201     0.8937099
H          -0.6861353     1.1094922     1.6960014
19
209_C5H8N2O3S_1-0-15-16 (-60,) energy =    -928.5966698
S           2.5421534    -1.9202974    -0.0965944
N           3.8501397    -1.4203089     0.8147650
C           4.6918909    -0.3623829     0.2483285
H           4.7724836    -0.4997212    -0.8299212
H           5.6896268    -0.4520942     0.6890222
H           4.3011235     0.6435401     0.4643249
C           3.7172841    -1.4183609     2.2745932
H           3.1108606    -2.2690510     2.5838497
H           3.2673356    -0.4886264     2.6512153
H           4.7191805    -1.5256412     2.7022408
O           1.9053412    -3.0156175     0.6281619
O           2.9779232    -2.0325900    -1.4805086
C           0.0645967     1.0651354    -0.4641519
H          -0.4803111     1.7898560    -1.0515453
N           0.9194290     0.1445234    -1.0570556
C           1.3715314    -0.5473538    -0.0626091
O           0.9093232    -0.1645782     1.1590101
C           0.0632009     0.8758778     0.8800413
H          -0.4291971     1.3351620     1.7222687
19
209_C5H8N2O3S_1-0-15-16 (-45,) energy =    -928.5960641
S           2.5683855    -1.8936068    -0.1293044
N           3.8482004    -1.4109977     0.8244207
C           4.6953548    -0.3291603     0.3165102
H           4.7772853    -0.4088633    -0.7676408
H           5.6930863    -0.4459369     0.7511839
H           4.3075551     0.6643391     0.5874404
C           3.7160303    -1.4941586     2.2818963
H           3.0920625    -2.3493099     2.5395681
H           3.2849769    -0.5794904     2.7115083
H           4.7153434    -1.6485973     2.7016574
O           1.9174316    -3.0087785     0.5522774
O           3.0360551    -1.9769737    -1.5053692
C          -0.0671861     0.9530578    -0.4920519
H          -0.7551809     1.5502674    -1.0727110
N           0.7198925    -0.0281191    -1.0821369
C           1.3966382    -0.5197014    -0.0973976
O           1.1416017     0.0468559     1.1138109
C           0.1925979     0.9974841     0.8392238
H          -0.1584359     1.5825329     1.6741310
19
209_C5H8N2O3S_1-0-15-16 (-30,) energy =    -928.5955907
S           2.6904650    -2.1122543     0.9855571
N           4.1400291    -1.3078558     0.8376240
C           4.6190656    -1.0061666    -0.5129255
H           4.3095416    -1.7983521    -1.1951153
H           5.7131337    -0.9766994    -0.4888329
H           4.2474429    -0.0365295    -0.8754399
C           4.5570091    -0.3825656     1.8946190
H           4.1560954    -0.7211667     2.8494429
H           4.2240123     0.6450213     1.6964355
H           5.6506152    -0.4002129     1.9473354
O           2.4718810    -2.3571007     2.4083361
O           2.6582720    -3.1802533    -0.0042906
C          -0.3110476     0.0793858    -0.1838339
H          -1.3050793     0.1971277    -0.5903327
N           0.2709910    -1.1739142    -0.0405904
C           1.4333063    -0.9227468     0.4628910
O           1.6957713     0.3963016     0.6733833
C           0.5552140     1.0299848     0.2490169
H           0.5475725     2.1057570     0.3202944
19
209_C5H8N2O3S_1-0-15-16 (-15,) energy =    -928.5951598
S           2.7018563    -2.1185590     0.9326253
N           4.1383474    -1.2874465     0.8294550
C           4.6589602    -0.9622709    -0.5001715
H           4.3647569    -1.7395405    -1.2057183
H           5.7521147    -0.9411769    -0.4429933
H           4.3028607     0.0157329    -0.8535584
C           4.5211247    -0.3836069     1.9172635
H           4.1045290    -0.7501177     2.8550860
H           4.1804244     0.6445566     1.7358790
H           5.6134162    -0.3893010     1.9943059
O           2.4793703    -2.4392540     2.3390776
O           2.6914881    -3.1381484    -0.1089587
C          -0.3512601     0.0969297    -0.0495044
H          -1.3904443     0.2232102    -0.3167530
N           0.1921367    -1.1602812     0.1827363
C           1.4279418    -0.9195161     0.4681559
O           1.7763635     0.3961030     0.4492936
C           0.6114349     1.0393811     0.1117504
H           0.6607682     2.1134593     0.0330568
19
209_C5H8N2O3S_1-0-15-16 (0,) energy =    -928.5949599
S           2.6890278    -2.1228890     0.8942579
N           4.1223228    -1.2832521     0.8351512
C           4.6906891    -0.9463002    -0.4721071
H           4.4068361    -1.7083730    -1.1977557
H           5.7816487    -0.9438151    -0.3786430
H           4.3602238     0.0415221    -0.8213353
C           4.4638603    -0.3895474     1.9444595
H           4.0298017    -0.7749928     2.8669755
H           4.1132180     0.6364533     1.7681057
H           5.5536187    -0.3796785     2.0504459
O           2.4617506    -2.5217830     2.2787044
O           2.6891253    -3.0846799    -0.2024162
C          -0.3831236     0.1394931     0.0939013
H          -1.4443192     0.2917343    -0.0402038
N           0.1361425    -1.1053492     0.4257262
C           1.4090604    -0.9041778     0.4997094
O           1.8050004     0.3729293     0.2458768
C           0.6305472     1.0348280    -0.0151592
H           0.7115862     2.0846494    -0.2464874
19
209_C5H8N2O3S_1-0-15-16 (15,) energy =    -928.5951595
S           2.7012760    -2.1570192     0.8614100
N           4.1311595    -1.3075908     0.8452110
C           4.7298701    -0.9425469    -0.4415136
H           4.4694800    -1.6934586    -1.1870377
H           5.8179473    -0.9347687    -0.3188848
H           4.4007454     0.0484468    -0.7815484
C           4.4222917    -0.4192565     1.9727850
H           3.9890625    -0.8339011     2.8831759
H           4.0380933     0.5970940     1.8065356
H           5.5090239    -0.3706373     2.0961428
O           2.4708265    -2.6295814     2.2208938
O           2.7121439    -3.0594173    -0.2857113
C          -0.3853712     0.1427989     0.2476795
H          -1.4494897     0.3296268     0.2490680
N           0.1397219    -1.0695183     0.6770225
C           1.4149196    -0.9255260     0.5366692
O           1.8066508     0.2831563     0.0484991
C           0.6271527     0.9621497    -0.1323351
H           0.7046304     1.9669700    -0.5152351
19
209_C5H8N2O3S_1-0-15-16 (30,) energy =    -928.5955907
S           2.7144474    -2.1474474     0.7949346
N           4.1473075    -1.3002960     0.8357397
C           4.7760477    -0.8972400    -0.4253917
H           4.5456947    -1.6337481    -1.1945114
H           5.8599134    -0.8785025    -0.2710765
H           4.4433629     0.0968279    -0.7528553
C           4.3884003    -0.4263950     1.9860453
H           3.9409926    -0.8660618     2.8778036
H           3.9865799     0.5852204     1.8279826
H           5.4699529    -0.3550242     2.1391015
O           2.4660765    -2.6889720     2.1240281
O           2.7386640    -2.9858186    -0.4003249
C          -0.3577613     0.2088437     0.3619938
H          -1.4028528     0.4479474     0.4954845
N           0.1910174    -0.9595320     0.8755834
C           1.4331838    -0.9005086     0.5276163
O           1.7801652     0.2104601    -0.1782999
C           0.6081214     0.9171376    -0.2757510
H           0.6553951     1.8573735    -0.8012245
19
209_C5H8N2O3S_1-0-15-16 (45,) energy =    -928.5960646
S           2.7131304    -2.1467310     0.7616010
N           4.1523507    -1.3101659     0.8500948
C           4.7834707    -0.8502053    -0.3901164
H           4.5605814    -1.5538067    -1.1915251
H           5.8665017    -0.8309227    -0.2303299
H           4.4459684     0.1552342    -0.6768323
C           4.3763669    -0.4764870     2.0334392
H           3.9235937    -0.9506188     2.9044374
H           3.9692013     0.5382113     1.9093997
H           5.4559433    -0.4026891     2.1984083
O           2.4437967    -2.7226206     2.0711657
O           2.7514686    -2.9462718    -0.4595663
C          -0.3114985     0.2917701     0.4721516
H          -1.3089545     0.6126431     0.7353393
N           0.2752108    -0.8178335     1.0679074
C           1.4394794    -0.8908874     0.5125063
O           1.6990909     0.0780541    -0.4076905
C           0.5551524     0.8336019    -0.4206596
H           0.5433851     1.6775444    -1.0916142
19
209_C5H8N2O3S_1-0-15-16 (60,) energy =    -928.5966698
S           2.3434289    -2.0942209     0.6634403
N           3.8693950    -1.4183537     0.7410491
C           4.4368045    -0.8460399    -0.4833921
H           4.1334155    -1.4487262    -1.3388377
H           5.5273219    -0.8820239    -0.3958419
H           4.1265568     0.1971633    -0.6388839
C           4.2383546    -0.7470484     1.9907774
H           3.8172809    -1.2928724     2.8350241
H           3.8972485     0.2989072     2.0200746
H           5.3295997    -0.7614916     2.0727016
O           2.0883988    -2.7693699     1.9271084
O           2.2322676    -2.7600448    -0.6307193
C          -0.2984707     0.7574234     0.9366985
H          -1.1236703     1.2538522     1.4263713
N           0.2649208    -0.4006136     1.4576007
C           1.1962009    -0.7021787     0.6127395
O           1.3252469     0.1622083    -0.4306629
C           0.3490124     1.0967087    -0.2071229
H           0.2661780     1.8896210    -0.9331898
19
209_C5H8N2O3S_1-0-15-16 (75,) energy =    -928.5973368
S           2.3439136    -2.1045784     0.6165048
N           3.8691723    -1.4276651     0.7479494
C           4.4241105    -0.7793762    -0.4442916
H           4.1612934    -1.3599593    -1.3281042
H           5.5135948    -0.7668931    -0.3417538
H           4.0687592     0.2550143    -0.5637460
C           4.1998320    -0.7930865     2.0283740
H           3.7962817    -1.3915265     2.8447968
H           3.8120797     0.2342934     2.0998057
H           5.2901095    -0.7647570     2.1170952
O           2.0624695    -2.8069512     1.8596251
O           2.2632815    -2.7390815    -0.6948336
C          -0.1364645     0.8756674     0.9756217
H          -0.8228995     1.4855674     1.5449007
N           0.4857780    -0.2330139     1.5337281
C           1.2009399    -0.7105160     0.5660510
O           1.1375297    -0.0039847    -0.5944358
C           0.2641844     1.0119494    -0.3147975
H           0.0506135     1.6980552    -1.1188296
19
209_C5H8N2O3S_1-0-15-16 (90,) energy =    -928.5977675
S           2.3424435    -2.1040344     0.5838517
N           3.8683570    -1.4384346     0.7656282
C           4.4254861    -0.7338681    -0.3933916
H           4.1775545    -1.2790587    -1.3037934
H           5.5137643    -0.7125639    -0.2811809
H           4.0604082     0.3016886    -0.4713443
C           4.1751834    -0.8453435     2.0723851
H           3.7676588    -1.4765861     2.8614449
H           3.7719702     0.1730616     2.1739189
H           5.2639672    -0.8086506     2.1751377
O           2.0347894    -2.8363811     1.8039765
O           2.2816138    -2.7047040    -0.7439055
C          -0.0092283     0.9711094     0.9815869
H          -0.5684855     1.6737323     1.5823116
N           0.6981107    -0.0757083     1.5559236
C           1.2108345    -0.6999970     0.5427017
O           0.9321101    -0.1503454    -0.6675016
C           0.1358533     0.9209512    -0.3682441
H          -0.2248342     1.5003071    -1.2031218
19
209_C5H8N2O3S_1-0-15-16 (105,) energy =    -928.5979689
S           2.3525827    -2.0859340     0.5322789
N           3.8794496    -1.4411083     0.7616719
C           4.4528831    -0.6947848    -0.3627673
H           4.2160363    -1.2043306    -1.2966207
H           5.5396176    -0.6806545    -0.2359525
H           4.0918482     0.3444569    -0.4045940
C           4.1753131    -0.8977851     2.0933214
H           3.7604467    -1.5585212     2.8537822
H           3.7697413     0.1149087     2.2286906
H           5.2634272    -0.8674683     2.2052809
O           2.0162163    -2.8485756     1.7269428
O           2.3082001    -2.6529930    -0.8105751
C           0.0928919     1.0572228     0.9405192
H          -0.3569123     1.8363406     1.5388122
N           0.9031161     0.0820225     1.5042263
C           1.2359046    -0.6677975     0.5001321
O           0.7364896    -0.2726369    -0.6970189
C          -0.0061592     0.8357704    -0.3963566
H          -0.5167517     1.3099536    -1.2192047
19
209_C5H8N2O3S_1-0-15-16 (120,) energy =    -928.5981691
S           2.3751937    -2.0711585     0.5058003
N           3.8960246    -1.4390768     0.7838002
C           4.4898605    -0.6538900    -0.3026843
H           4.2600223    -1.1226507    -1.2595446
H           5.5751802    -0.6556686    -0.1633583
H           4.1379944     0.3891188    -0.3039487
C           4.1858907    -0.9543025     2.1399932
H           3.7433000    -1.6334178     2.8678772
H           3.8021396     0.0612759     2.3060418
H           5.2728591    -0.9579949     2.2675930
O           2.0037371    -2.8543627     1.6777708
O           2.3578531    -2.6188260    -0.8457981
C           0.1798916     1.1249729     0.8662830
H          -0.1763815     1.9773907     1.4263441
N           1.0945655     0.2300316     1.4033649
C           1.2697438    -0.6427592     0.4604555
O           0.5629723    -0.4097177    -0.6711271
C          -0.1416269     0.7292226    -0.3929911
H          -0.7920429     1.0938760    -1.1717601
19
209_C5H8N2O3S_1-0-15-16 (135,) energy =    -928.5985961
S           2.4029887    -2.0443058     0.4631785
N           3.9106450    -1.4167469     0.7933175
C           4.5286901    -0.5967683    -0.2529323
H           4.3105849    -1.0272416    -1.2304757
H           5.6117265    -0.6143288    -0.0974757
H           4.1833910     0.4471962    -0.2180306
C           4.1920612    -0.9959939     2.1728841
H           3.7123889    -1.6872929     2.8649648
H           3.8399857     0.0247312     2.3689269
H           5.2756933    -1.0448541     2.3197762
O           1.9983219    -2.8552128     1.6063441
O           2.4193016    -2.5677611    -0.8983973
C           0.2626836     1.1942232     0.7793077
H          -0.0068993     2.1126648     1.2802183
N           1.2748209     0.3722546     1.2568475
C           1.3042848    -0.6108738     0.4120519
O           0.4071889    -0.5234853    -0.5972557
C          -0.2632375     0.6425014    -0.3448332
H          -1.0426686     0.9086191    -1.0405609
19
209_C5H8N2O3S_1-0-15-16 (150,) energy =    -928.5991501
S           2.4405392    -2.0282849     0.4149964
N           3.9289018    -1.3972382     0.7990211
C           4.5838981    -0.5615407    -0.2116230
H           4.3823907    -0.9647381    -1.2042673
H           5.6628030    -0.6005481    -0.0322415
H           4.2508299     0.4846622    -0.1571566
C           4.1889094    -1.0260443     2.1964983
H           3.6773290    -1.7265998     2.8557964
H           3.8569784    -0.0033772     2.4133791
H           5.2673061    -1.1066979     2.3669128
O           2.0081363    -2.8685469     1.5271026
O           2.4927326    -2.5243358    -0.9564166
C           0.3465855     1.2450074     0.6794151
H           0.1546259     2.2229431     1.0962994
N           1.4419343     0.4852955     1.0717425
C           1.3393458    -0.5975925     0.3664372
O           0.2771505    -0.6369438    -0.4693716
C          -0.3586045     0.5564902    -0.2543279
H          -1.2522034     0.7349300    -0.8304846
19
209_C5H8N2O3S_1-0-15-16 (165,) energy =    -928.5995449
S           2.4217317    -2.0176629     0.3607761
N           3.8940559    -1.3962233     0.8035830
C           4.6056423    -0.5638262    -0.1718807
H           4.4226066    -0.9447163    -1.1767549
H           5.6769104    -0.6403140     0.0395269
H           4.2996383     0.4889399    -0.1079618
C           4.1119800    -1.0541010     2.2150534
H           3.5641086    -1.7548760     2.8445312
H           3.7944877    -0.0277049     2.4356988
H           5.1817048    -1.1596556     2.4227646
O           1.9563057    -2.8921864     1.4330545
O           2.5113120    -2.4755244    -1.0223656
C           0.3888657     1.2966719     0.5756683
H           0.2686561     2.3227423     0.8911965
N           1.5425114     0.5750992     0.8622458
C           1.3215121    -0.5872375     0.3333107
O           0.1269838    -0.7162756    -0.2869035
C          -0.4672140     0.5064363    -0.1203937
H          -1.4495548     0.6255411    -0.5483067
19
209_C5H8N2O3S_1-0-15-16 (180,) energy =    -928.5996835
S           2.4466118    -1.9923936     0.2778171
N           3.8992111    -1.3787628     0.7869244
C           4.6673195    -0.5478976    -0.1476794
H           4.5158328    -0.9121330    -1.1637158
H           5.7272962    -0.6516273     0.1054902
H           4.3782182     0.5084904    -0.0810899
C           4.0554976    -1.0542492     2.2095909
H           3.4777491    -1.7594892     2.8069038
H           3.7346692    -0.0278226     2.4275389
H           5.1141241    -1.1666287     2.4648197
O           1.9542690    -2.9127403     1.2986727
O           2.5822594    -2.3939340    -1.1192989
C           0.4290484     1.3329621     0.4662191
H           0.3508574     2.3904110     0.6723781
N           1.6260835     0.6438228     0.6298218
C           1.3325177    -0.5727006     0.2928240
O           0.0489516    -0.7689055    -0.0828193
C          -0.5245474     0.4698735     0.0338597
H          -1.5693492     0.5415835    -0.2221393
