28
023_C9H15N4+_0-8-9-21 (-165,) energy =    -570.7516923
N           0.1882896    -0.5254327    -1.0818134
C          -0.9961205    -0.3275352    -0.4939306
H          -1.8658738    -0.7276898    -1.0109469
C          -1.1196939     0.3455235     0.7217032
H          -2.0832037     0.5011284     1.1943136
C           0.0624567     0.7909787     1.3032202
H           0.0611790     1.3062780     2.2617343
N           1.2614914     0.6136787     0.7253290
C           1.2564954    -0.0240741    -0.4500617
C           2.5677740    -0.2147122    -1.1981993
H           2.5861566     0.5093092    -2.0222317
H           2.5465988    -1.2134542    -1.6660485
N           6.2965638    -0.1985800     0.8972214
H           6.6540052    -1.1096747     0.5826537
H           7.0127694     0.1955482     1.5172143
C           6.1022825     0.6970753    -0.3166435
H           7.0579522     0.7427923    -0.8442928
H           5.8383167     1.6833525     0.0698267
C           4.9793048     0.1286010    -1.1788729
H           5.3074496    -0.8306649    -1.6314559
H           4.8148363     0.8280469    -2.0044888
N           3.7661657     0.0071511    -0.3900426
C           3.9377500    -0.9381478     0.7016267
H           4.2051320    -1.9572451     0.3528080
H           3.0047434    -1.0104067     1.2637605
C           4.9990032    -0.4214207     1.6628201
H           5.2172442    -1.1233531     2.4710598
H           4.7090045     0.5485617     2.0710980
28
023_C9H15N4+_0-8-9-21 (-150,) energy =    -570.7508559
N           0.2637528    -0.7084619    -0.9780189
C          -0.9197043    -0.5581886    -0.3705047
H          -1.7467346    -1.1394756    -0.7729093
C          -1.0901913     0.2851727     0.7259396
H          -2.0512468     0.4004656     1.2150009
C           0.0444511     0.9593050     1.1695522
H           0.0051354     1.6219464     2.0320470
N           1.2367976     0.8354207     0.5684105
C           1.2771668     0.0160917    -0.4894238
C           2.5835381    -0.1116614    -1.2573519
H           2.6032891     0.6727519    -2.0247585
H           2.5666347    -1.0770200    -1.7883406
N           6.2974777    -0.2521039     0.8605758
H           6.6320485    -1.1603704     0.5141162
H           7.0209969     0.0998599     1.4972254
C           6.1320089     0.6923350    -0.3204082
H           7.0913845     0.7338132    -0.8415778
H           5.8899818     1.6698920     0.1010258
C           5.0004780     0.1829335    -1.2075674
H           5.3075750    -0.7668682    -1.6937585
H           4.8561154     0.9157033    -2.0076900
N           3.7799609     0.0617444    -0.4303494
C           3.9217524    -0.9229985     0.6293601
H           4.1638585    -1.9375365     0.2498842
H           2.9840322    -0.9955707     1.1848879
C           4.9912872    -0.4670081     1.6129751
H           5.1866322    -1.2017841     2.3975384
H           4.7261153     0.4960094     2.0534158
28
023_C9H15N4+_0-8-9-21 (-135,) energy =    -570.7502826
N           0.3387157    -0.8687199    -0.7864315
C          -0.8394906    -0.7337650    -0.1616432
H          -1.6016931    -1.4718811    -0.4024440
C          -1.0811169     0.2872943     0.7539125
H          -2.0371744     0.3912506     1.2553064
C          -0.0246922     1.1631228     0.9986829
H          -0.1241978     1.9809476     1.7099763
N           1.1571316     1.0548785     0.3780061
C           1.2708106     0.0467165    -0.4967403
C           2.5713675    -0.0655696    -1.2750360
H           2.6019230     0.7467869    -2.0112528
H           2.5542483    -1.0167164    -1.8293061
N           6.2728191    -0.3070806     0.8586891
H           6.6145665    -1.1894727     0.4567209
H           6.9902781     0.0066645     1.5216493
C           6.1101053     0.7107867    -0.2605149
H           7.0731630     0.7910819    -0.7701913
H           5.8586004     1.6578284     0.2208205
C           4.9889117     0.2523740    -1.1874091
H           5.3052718    -0.6635218    -1.7294136
H           4.8459206     1.0333836    -1.9406501
N           3.7627060     0.0766146    -0.4293040
C           3.9029720    -0.9723141     0.5674796
H           4.1534536    -1.9595889     0.1265177
H           2.9599494    -1.0925533     1.1072539
C           4.9633105    -0.5761333     1.5871626
H           5.1568730    -1.3599505     2.3232064
H           4.6931011     0.3551131     2.0887185
28
023_C9H15N4+_0-8-9-21 (-120,) energy =    -570.7503529
N           0.4444737    -0.9700002    -0.5442850
C          -0.7251720    -0.8149254     0.0944599
H          -1.4081739    -1.6612569     0.0637854
C          -1.0538244     0.3598495     0.7643108
H          -2.0042331     0.4804414     1.2727265
C          -0.0952480     1.3733398     0.7494684
H          -0.2686186     2.3214858     1.2549926
N           1.0755775     1.2430976     0.1152081
C           1.2792228     0.0754888    -0.5100873
C           2.5755105    -0.0670462    -1.2872254
H           2.6266596     0.7451540    -2.0199953
H           2.5544334    -1.0228005    -1.8322992
N           6.2643976    -0.3598263     0.8651078
H           6.6378745    -1.1931287     0.3927410
H           6.9650746    -0.0827964     1.5615351
C           6.0807700     0.7456648    -0.1645925
H           7.0465386     0.9003832    -0.6514144
H           5.7925843     1.6390784     0.3927681
C           4.9861859     0.3342240    -1.1437938
H           5.3378192    -0.5226892    -1.7558506
H           4.8272046     1.1721271    -1.8293387
N           3.7573127     0.0579238    -0.4196612
C           3.9218242    -1.0690642     0.4856496
H           4.2119885    -2.0036001    -0.0380941
H           2.9748537    -1.2747640     0.9927496
C           4.9571199    -0.7317860     1.5511593
H           5.1679233    -1.5714991     2.2175265
H           4.6550353     0.1427474     2.1306876
28
023_C9H15N4+_0-8-9-21 (-105,) energy =    -570.7508987
N           0.5673240    -0.9979156    -0.3112628
C          -0.5929640    -0.8473131     0.3463980
H          -1.1724302    -1.7521590     0.5172456
C          -1.0399828     0.3949425     0.7855371
H          -1.9844257     0.5113709     1.3058840
C          -0.2080201     1.4837726     0.5230418
H          -0.4796888     2.4892358     0.8385978
N           0.9528618     1.3573774    -0.1295779
C           1.2758739     0.1181934    -0.5237751
C           2.5695040    -0.0298261    -1.3008549
H           2.6349716     0.7958709    -2.0146023
H           2.5497387    -0.9789836    -1.8571138
N           6.2475411    -0.4054630     0.8632533
H           6.6370620    -1.2003232     0.3404240
H           6.9383445    -0.1649553     1.5827268
C           6.0559103     0.7632209    -0.0926661
H           7.0231615     0.9641432    -0.5592760
H           5.7504217     1.6133920     0.5203816
C           4.9750699     0.4043831    -1.1071287
H           5.3415851    -0.4061112    -1.7709873
H           4.8111498     1.2845318    -1.7361765
N           3.7434772     0.0655530    -0.4125835
C           3.9200332    -1.1203907     0.4148897
H           4.2344601    -2.0076379    -0.1728231
H           2.9703744    -1.3824895     0.8896209
C           4.9397758    -0.8412734     1.5108866
H           5.1573589    -1.7212961     2.1206761
H           4.6217457    -0.0125491     2.1465463
28
023_C9H15N4+_0-8-9-21 (-90,) energy =    -570.7516946
N           0.7068487    -0.9582425    -0.0847130
C          -0.4493543    -0.8099338     0.5789285
H          -0.9178093    -1.7216863     0.9436603
C          -1.0300198     0.4378443     0.7867398
H          -1.9730649     0.5486304     1.3107680
C          -0.3349800     1.5383173     0.2863548
H          -0.7146850     2.5503171     0.4116745
N           0.8227674     1.4143975    -0.3738459
C           1.2806637     0.1666669    -0.5343220
C           2.5752611     0.0144741    -1.3074859
H           2.6538939     0.8575008    -1.9974489
H           2.5519818    -0.9208684    -1.8873809
N           6.2459084    -0.4605258     0.8550600
H           6.6463652    -1.2177891     0.2867457
H           6.9299959    -0.2582180     1.5924693
C           6.0486797     0.7627511    -0.0284387
H           7.0166233     1.0008019    -0.4757846
H           5.7322779     1.5709588     0.6338714
C           4.9771850     0.4583600    -1.0704883
H           5.3548567    -0.3068301    -1.7802409
H           4.8098732     1.3742909    -1.6451444
N           3.7447069     0.0661603    -0.4056170
C           3.9289535    -1.1687558     0.3470672
H           4.2603358    -2.0107808    -0.2956544
H           2.9761380    -1.4722163     0.7897772
C           4.9380322    -0.9491874     1.4652223
H           5.1614645    -1.8637762     2.0194978
H           4.6085453    -0.1656943     2.1505358
28
023_C9H15N4+_0-8-9-21 (-75,) energy =    -570.7523645
N           1.0418211    -0.4768541     1.2414001
C          -0.1367379     0.0933344     1.5275739
H          -0.3416285     0.2803513     2.5796454
C          -1.0607148     0.4225472     0.5393262
H          -2.0191496     0.8691356     0.7802578
C          -0.6878581     0.1484095    -0.7750016
H          -1.3460858     0.3805561    -1.6096331
N           0.4888499    -0.4121854    -1.0836676
C           1.2938702    -0.7051548    -0.0562705
C           2.6113802    -1.3730708    -0.3992280
H           2.5515517    -1.6944677    -1.4405392
H           2.7543745    -2.2635303     0.2345028
N           6.3108998     0.6879350     0.2787695
H           6.8428670    -0.1035972     0.6624412
H           6.9476391     1.4924415     0.2773346
C           5.8876945     0.3497449    -1.1429165
H           6.7931459     0.1046187    -1.7030861
H           5.4287064     1.2534282    -1.5487470
C           4.8883027    -0.8023072    -1.1065422
H           5.4000071    -1.7271473    -0.7674484
H           4.5550809    -0.9786782    -2.1336539
N           3.7508175    -0.4391732    -0.2758597
C           4.1638760    -0.2261056     1.1065176
H           4.6465329    -1.1248236     1.5450538
H           3.2811040    -0.0127414     1.7159769
C           5.1168867     0.9567756     1.1872317
H           5.5074437     1.1170507     2.1949124
H           4.6498307     1.8711181     0.8158622
28
023_C9H15N4+_0-8-9-21 (-60,) energy =    -570.7526244
N           1.1251862    -0.2105894     1.1616800
C          -0.0646153     0.3311699     1.4530341
H          -0.1927186     0.7031766     2.4674571
C          -1.0933221     0.4093940     0.5177403
H          -2.0580252     0.8384096     0.7653051
C          -0.8161897    -0.0932040    -0.7513899
H          -1.5603769    -0.0689639    -1.5446237
N           0.3713470    -0.6276370    -1.0664620
C           1.2842137    -0.6651064    -0.0901844
C           2.6107481    -1.3134236    -0.4440652
H           2.5531683    -1.5979432    -1.4960894
H           2.7409054    -2.2362335     0.1474950
N           6.3494912     0.6455135     0.3194606
H           6.8711699    -0.1761287     0.6501794
H           7.0001243     1.4379009     0.3578652
C           5.9050756     0.3989976    -1.1140725
H           6.7995350     0.1717806    -1.6988986
H           5.4579889     1.3329062    -1.4604858
C           4.8861011    -0.7361857    -1.1340687
H           5.3857334    -1.6873547    -0.8550157
H           4.5416818    -0.8468468    -2.1666788
N           3.7619837    -0.4046221    -0.2717678
C           4.1929321    -0.2778390     1.1166313
H           4.6625757    -1.2090763     1.4981185
H           3.3164591    -0.0747730     1.7382214
C           5.1685485     0.8804108     1.2543889
H           5.5711203     0.9752249     2.2655848
H           4.7138846     1.8225384     0.9416603
28
023_C9H15N4+_0-8-9-21 (-45,) energy =    -570.7526343
N           1.1891260     0.0442186     1.0378118
C          -0.0115175     0.5536959     1.3447645
H          -0.0825031     1.0945062     2.2862379
C          -1.1181068     0.3986073     0.5147831
H          -2.0878851     0.8086090     0.7742455
C          -0.9118195    -0.3127468    -0.6652694
H          -1.7205190    -0.4822198    -1.3730197
N           0.2832323    -0.8186570    -0.9960123
C           1.2770855    -0.6163043    -0.1245628
C           2.6088671    -1.2447076    -0.5014075
H           2.5524426    -1.4825086    -1.5653495
H           2.7224940    -2.2038601     0.0359296
N           6.3771993     0.6073114     0.3667418
H           6.8854437    -0.2383867     0.6548958
H           7.0403062     1.3862687     0.4455158
C           5.9293048     0.4418859    -1.0769932
H           6.8197716     0.2296764    -1.6734336
H           5.4980263     1.3996345    -1.3749811
C           4.8916037    -0.6735893    -1.1542130
H           5.3754155    -1.6456537    -0.9234587
H           4.5477419    -0.7266966    -2.1916083
N           3.7712309    -0.3677525    -0.2773188
C           4.2023134    -0.3180431     1.1162036
H           4.6513960    -1.2759208     1.4535089
H           3.3284475    -0.1154377     1.7404261
C           5.1991651     0.8133954     1.3117610
H           5.6017252     0.8502215     2.3267038
H           4.7594361     1.7770909     1.0471309
28
023_C9H15N4+_0-8-9-21 (-30,) energy =    -570.7526227
N           1.2483055     0.2554315     0.8823385
C           0.0439280     0.7427949     1.2159517
H           0.0167021     1.4282946     2.0604870
C          -1.1150715     0.3934634     0.5309464
H          -2.0844759     0.7919846     0.8088868
C          -0.9624353    -0.4994132    -0.5290536
H          -1.8153055    -0.8317222    -1.1172375
N           0.2308669    -0.9896761    -0.8831334
C           1.2798717    -0.5844160    -0.1586517
C           2.6092188    -1.1962008    -0.5747798
H           2.5508037    -1.3723315    -1.6514246
H           2.7038631    -2.1924480    -0.1042831
N           6.3862379     0.5712940     0.4067032
H           6.8849754    -0.2893227     0.6659403
H           7.0546749     1.3409094     0.5232383
C           5.9525757     0.4667934    -1.0469242
H           6.8477521     0.2704518    -1.6417865
H           5.5320616     1.4389897    -1.3114886
C           4.9066772    -0.6360163    -1.1780797
H           5.3808603    -1.6206895    -0.9836105
H           4.5717703    -0.6442601    -2.2198031
N           3.7814093    -0.3556789    -0.3001166
C           4.1961088    -0.3646531     1.0982493
H           4.6291717    -1.3391691     1.4065113
H           3.3195734    -0.1654277     1.7185625
C           5.2008924     0.7493839     1.3474750
H           5.5938917     0.7433838     2.3668065
H           4.7683453     1.7248623     1.1166305
28
023_C9H15N4+_0-8-9-21 (-15,) energy =    -570.7525922
N           1.2613683     0.4179733     0.7256036
C           0.0540038     0.8759493     1.0944266
H           0.0452305     1.6721505     1.8359838
C          -1.1275294     0.3674115     0.5678321
H          -2.0976188     0.7461259     0.8699768
C          -0.9970729    -0.6622008    -0.3648201
H          -1.8689966    -1.1258028    -0.8216630
N           0.1947956    -1.1305358    -0.7473021
C           1.2670365    -0.5597303    -0.1855448
C           2.5933342    -1.1366556    -0.6595682
H           2.5326478    -1.2181151    -1.7487640
H           2.6779092    -2.1726756    -0.2832446
N           6.3629010     0.5405300     0.4829994
H           6.8474879    -0.3322516     0.7279755
H           7.0342222     1.2999468     0.6420644
C           5.9686642     0.4868557    -0.9847144
H           6.8777786     0.2978120    -1.5605137
H           5.5671224     1.4720761    -1.2297408
C           4.9135994    -0.5976983    -1.1791177
H           5.3699179    -1.5945141    -1.0048915
H           4.6063023    -0.5681627    -2.2290066
N           3.7691269    -0.3308689    -0.3226368
C           4.1450144    -0.3935185     1.0842691
H           4.5571884    -1.3830178     1.3719495
H           3.2581685    -0.2000579     1.6907202
C           5.1544797     0.7006057     1.3969339
H           5.5195981     0.6581167     2.4257069
H           4.7355203     1.6863358     1.1856306
28
023_C9H15N4+_0-8-9-21 (0,) energy =    -570.7523597
N           1.2700727     0.5552333     0.5581370
C           0.0660092     0.9881959     0.9678512
H           0.0610690     1.8762714     1.5965962
C          -1.1157922     0.3470932     0.6160916
H          -2.0829108     0.7088137     0.9472505
C          -0.9888637    -0.7940975    -0.1773928
H          -1.8603448    -1.3657616    -0.4898916
N           0.1986271    -1.2449348    -0.5916954
C           1.2694186    -0.5381600    -0.2098316
C           2.5850996    -1.0769494    -0.7534779
H           2.5139951    -1.0557362    -1.8465517
H           2.6612627    -2.1432600    -0.4758854
N           6.3540241     0.4925511     0.5263701
H           6.8171382    -0.3943372     0.7621694
H           7.0340352     1.2357756     0.7209908
C           5.9974513     0.4813299    -0.9520252
H           6.9178259     0.2885772    -1.5084035
H           5.6205573     1.4794820    -1.1833411
C           4.9277967    -0.5779314    -1.1989897
H           5.3609916    -1.5876126    -1.0400075
H           4.6459016    -0.5166268    -2.2547273
N           3.7686668    -0.3109308    -0.3639798
C           4.1057746    -0.4156321     1.0487773
H           4.4913532    -1.4190792     1.3243968
H           3.2102286    -0.2198600     1.6412625
C           5.1258967     0.6529146     1.4131949
H           5.4639436     0.5804993     2.4495154
H           4.7276996     1.6496426     1.2138845
28
023_C9H15N4+_0-8-9-21 (15,) energy =    -570.7517736
N           1.2538783     0.6705024     0.3779011
C           0.0539800     1.0719400     0.8274959
H           0.0275672     2.0339406     1.3355139
C          -1.0990022     0.3128654     0.6590102
H          -2.0645196     0.6510873     1.0186101
C          -0.9432995    -0.9136367     0.0128011
H          -1.7885942    -1.5791660    -0.1498186
N           0.2431863    -1.3385328    -0.4333412
C           1.2809006    -0.5161307    -0.2378255
C           2.5852550    -1.0089174    -0.8469183
H           2.5068208    -0.8820110    -1.9337003
H           2.6541669    -2.0952806    -0.6677365
N           6.3476084     0.4508056     0.5707066
H           6.7864137    -0.4504647     0.7986462
H           7.0367480     1.1752927     0.8006662
C           6.0318746     0.4796911    -0.9168615
H           6.9636389     0.2811466    -1.4518503
H           5.6804381     1.4898595    -1.1355693
C           4.9492754    -0.5530110    -1.2153545
H           5.3598621    -1.5743948    -1.0711022
H           4.6936217    -0.4616564    -2.2756720
N           3.7757376    -0.2849037    -0.4030405
C           4.0707116    -0.4257517     1.0142026
H           4.4298739    -1.4411288     1.2819756
H           3.1647856    -0.2273983     1.5901213
C           5.0997839     0.6166909     1.4279990
H           5.4088384     0.5169377     2.4711319
H           4.7247320     1.6242072     1.2385197
28
023_C9H15N4+_0-8-9-21 (30,) energy =    -570.7509669
N           1.1884915     0.8039305     0.1669626
C          -0.0019882     1.1821311     0.6555332
H          -0.0733307     2.2075038     1.0133476
C          -1.0969906     0.3238380     0.7036879
H          -2.0577954     0.6442239     1.0913428
C          -0.8878555    -0.9728665     0.2370230
H          -1.6832160    -1.7152192     0.2492357
N           0.2950951    -1.3767431    -0.2416078
C           1.2702771    -0.4606176    -0.2640107
C           2.5633868    -0.9237172    -0.9167735
H           2.4899215    -0.7143775    -1.9916033
H           2.6204462    -2.0190719    -0.8094701
N           6.3287009     0.3872669     0.6323526
H           6.7348020    -0.5345788     0.8377596
H           7.0337297     1.0816716     0.9033072
C           6.0483223     0.4779379    -0.8600195
H           6.9862314     0.2715322    -1.3810500
H           5.7303852     1.5049123    -1.0498419
C           4.9445092    -0.5122536    -1.2179383
H           5.3231860    -1.5495484    -1.1018966
H           4.7139490    -0.3765517    -2.2792758
N           3.7606756    -0.2408166    -0.4222742
C           4.0179752    -0.4354493     0.9950150
H           4.3407067    -1.4687998     1.2398723
H           3.1052790    -0.2332669     1.5599607
C           5.0671271     0.5624512     1.4667955
H           5.3483415     0.4193678     2.5127570
H           4.7273825     1.5868035     1.3025513
28
023_C9H15N4+_0-8-9-21 (45,) energy =    -570.7503239
N           1.0999830     0.8905241    -0.1133509
C          -0.0782909     1.2629617     0.4034479
H          -0.2210405     2.3305240     0.5602467
C          -1.0790487     0.3464010     0.7211976
H          -2.0334552     0.6610792     1.1290400
C          -0.7840476    -0.9956587     0.4943569
H          -1.5009370    -1.7808620     0.7251626
N           0.3920912    -1.3930681    -0.0104996
C           1.2684673    -0.4248339    -0.3022260
C           2.5569115    -0.8826152    -0.9657465
H           2.5007815    -0.6301211    -2.0316815
H           2.6071622    -1.9797817    -0.8872998
N           6.3129107     0.3365693     0.6822016
H           6.7148550    -0.5974159     0.8341740
H           7.0178506     1.0108878     1.0000816
C           6.0440844     0.5184961    -0.8042861
H           6.9857714     0.3421735    -1.3294902
H           5.7290178     1.5556760    -0.9339503
C           4.9420833    -0.4463591    -1.2297583
H           5.3181058    -1.4894628    -1.1721945
H           4.7199514    -0.2470240    -2.2827397
N           3.7515600    -0.2200284    -0.4295261
C           3.9976434    -0.4987133     0.9757967
H           4.3157970    -1.5456614     1.1618464
H           3.0799092    -0.3355483     1.5468479
C           5.0459094     0.4655230     1.5164688
H           5.3181845     0.2570559     2.5537735
H           4.7132565     1.5001703     1.4133947
28
023_C9H15N4+_0-8-9-21 (60,) energy =    -570.7503103
N           0.9919225     0.8943855    -0.4633092
C          -0.1686696     1.3034901     0.0615293
H          -0.3982807     2.3627422    -0.0379672
C          -1.0498607     0.4302533     0.6998755
H          -1.9925980     0.7722187     1.1129395
C          -0.6523583    -0.9008083     0.7829473
H          -1.2705452    -1.6486181     1.2751947
N           0.5088269    -1.3333403     0.2681539
C           1.2626497    -0.4127408    -0.3440558
C           2.5518753    -0.9054651    -0.9770407
H           2.5257916    -0.6629650    -2.0446381
H           2.5962202    -2.0001288    -0.8741136
N           6.2895928     0.3079591     0.7220674
H           6.7305330    -0.6192597     0.7752853
H           6.9728568     0.9758709     1.0958880
C           5.9887765     0.6244729    -0.7359091
H           6.9284240     0.5419593    -1.2871987
H           5.6284128     1.6547817    -0.7578322
C           4.9209296    -0.3394983    -1.2427303
H           5.3398593    -1.3664593    -1.2908044
H           4.6746952    -0.0466039    -2.2678365
N           3.7348345    -0.2398848    -0.4097125
C           4.0163193    -0.6459747     0.9586133
H           4.3828027    -1.6910910     1.0307693
H           3.1002920    -0.5925895     1.5538388
C           5.0331635     0.3017982     1.5820382
H           5.3308030     0.0009933     2.5892856
H           4.6613691     1.3282404     1.5894234
28
023_C9H15N4+_0-8-9-21 (75,) energy =    -570.7509126
N           0.8484111     0.8311044    -0.7403327
C          -0.2980613     1.2478866    -0.1914424
H          -0.6412065     2.2395083    -0.4800726
C          -1.0267611     0.4626615     0.7025745
H          -1.9605268     0.8069078     1.1336803
C          -0.4891887    -0.7816441     1.0166121
H          -0.9816560    -1.4526192     1.7173267
N           0.6585871    -1.2211236     0.4771856
C           1.2579432    -0.3957485    -0.3902594
C           2.5473040    -0.8839796    -1.0210810
H           2.5357038    -0.6084595    -2.0791799
H           2.5975655    -1.9802479    -0.9411674
N           6.2730893     0.2629297     0.7554846
H           6.7226835    -0.6615760     0.7469572
H           6.9502943     0.9109392     1.1728287
C           5.9684194     0.6723202    -0.6783687
H           6.9084025     0.6354021    -1.2339952
H           5.5989207     1.6986039    -0.6321340
C           4.9094965    -0.2654245    -1.2489339
H           5.3366454    -1.2835997    -1.3629437
H           4.6614796     0.0922575    -2.2527757
N           3.7213946    -0.2309077    -0.4119230
C           4.0100840    -0.7268490     0.9268319
H           4.3911604    -1.7691617     0.9229728
H           3.0928473    -0.7338583     1.5222929
C           5.0169707     0.1865199     1.6132156
H           5.3183819    -0.1797754     2.5973979
H           4.6371257     1.2070685     1.6919141
28
023_C9H15N4+_0-8-9-21 (90,) energy =    -570.7517281
N           0.7079735     0.7242509    -0.9736209
C          -0.4348529     1.1483383    -0.4206834
H          -0.8909762     2.0287377    -0.8688796
C          -1.0194801     0.5055663     0.6699694
H          -1.9510911     0.8512452     1.1044844
C          -0.3412463    -0.5996749     1.1757278
H          -0.7170207    -1.1509692     2.0351823
N           0.8019073    -1.0456297     0.6340149
C           1.2592947    -0.3665493    -0.4274939
C           2.5502889    -0.8567298    -1.0516541
H           2.5509938    -0.5537289    -2.1009710
H           2.5966763    -1.9551965    -0.9979371
N           6.2760724     0.2117886     0.7805131
H           6.7365398    -0.7044975     0.7086145
H           6.9477261     0.8391476     1.2365529
C           5.9587303     0.7116018    -0.6213938
H           6.8957966     0.7226157    -1.1830846
H           5.5788360     1.7285295    -0.5051613
C           4.9065096    -0.1967793    -1.2494137
H           5.3429782    -1.2005902    -1.4329260
H           4.6503738     0.2253961    -2.2257646
N           3.7227166    -0.2309936    -0.4053069
C           4.0268187    -0.8153295     0.8953567
H           4.4259408    -1.8476835     0.8123084
H           3.1101137    -0.8826371     1.4879639
C           5.0249203     0.0619611     1.6373092
H           5.3366307    -0.3660633     2.5929636
H           4.6341632     1.0704027     1.7870204
28
023_C9H15N4+_0-8-9-21 (105,) energy =    -570.7523636
N           0.5187749     0.5929860    -1.0889881
C          -0.6335072     0.9982040    -0.5392780
H          -1.2068202     1.7302890    -1.1042154
C          -1.0834040     0.5161829     0.6882893
H          -2.0214940     0.8446316     1.1220843
C          -0.2631943    -0.4078009     1.3303753
H          -0.5314595    -0.8279288     2.2975167
N           0.8885181    -0.8337159     0.7935399
C           1.2176838    -0.3154280    -0.3992456
C           2.5128137    -0.7920123    -1.0278286
H           2.5125880    -0.4583185    -2.0670229
H           2.5520800    -1.8934025    -1.0138856
N           6.2714649     0.1636049     0.8033563
H           6.7258341    -0.7491480     0.6724067
H           6.9540454     0.7619429     1.2816305
C           5.9316158     0.7413692    -0.5623790
H           6.8585120     0.7812249    -1.1394407
H           5.5577923     1.7513649    -0.3829889
C           4.8650891    -0.1276002    -1.2216644
H           5.2950116    -1.1212502    -1.4665168
H           4.5962858     0.3477463    -2.1697664
N           3.6948408    -0.2052751    -0.3613961
C           4.0192125    -0.8605741     0.9005943
H           4.4133329    -1.8879681     0.7524543
H           3.1089766    -0.9542769     1.4997549
C           5.0337510    -0.0297865     1.6716267
H           5.3600052    -0.5120666     2.5960723
H           4.6505822     0.9700992     1.8849408
28
023_C9H15N4+_0-8-9-21 (120,) energy =    -570.7526160
N           0.3814230     0.4261853    -1.1922508
C          -0.7867132     0.8003976    -0.6532700
H          -1.4602092     1.3577233    -1.3009147
C          -1.1291168     0.5004667     0.6631514
H          -2.0777619     0.8053149     1.0910790
C          -0.1877239    -0.2123405     1.4012904
H          -0.3706042    -0.4854542     2.4385119
N           0.9802577    -0.6064217     0.8772361
C           1.2066750    -0.2665988    -0.4004502
C           2.5104035    -0.7211886    -1.0316707
H           2.5111974    -0.3510405    -2.0582445
H           2.5380634    -1.8239999    -1.0702822
N           6.3000821     0.0975641     0.8028744
H           6.7425194    -0.8115908     0.6176033
H           6.9954148     0.6629114     1.3024442
C           5.9473778     0.7499783    -0.5249915
H           6.8661769     0.8114392    -1.1130006
H           5.5869241     1.7527046    -0.2869306
C           4.8626658    -0.0722799    -1.2139363
H           5.2790846    -1.0560678    -1.5156327
H           4.5886004     0.4543544    -2.1330188
N           3.7017367    -0.1834832    -0.3440959
C           4.0363954    -0.9066634     0.8783253
H           4.4159411    -1.9296066     0.6714243
H           3.1313090    -1.0106670     1.4831939
C           5.0712187    -0.1287968     1.6760619
H           5.4039455    -0.6626115     2.5693435
H           4.7019475     0.8623115     1.9470634
28
023_C9H15N4+_0-8-9-21 (135,) energy =    -570.7526369
N           0.2832391     0.2490007    -1.2535633
C          -0.8959179     0.5910633    -0.7184443
H          -1.6526913     0.9561598    -1.4095718
C          -1.1486461     0.4936445     0.6481297
H          -2.1050601     0.7757160     1.0742458
C          -0.1078584     0.0123648     1.4374242
H          -0.2181748    -0.0978138     2.5142693
N           1.0741794    -0.3472876     0.9193223
C           1.2119076    -0.2067636    -0.4061742
C           2.5225425    -0.6341734    -1.0457650
H           2.5267331    -0.2218827    -2.0563673
H           2.5350077    -1.7348587    -1.1459894
N           6.3317434     0.0355726     0.8054226
H           6.7604597    -0.8695010     0.5739102
H           7.0374278     0.5667234     1.3275098
C           5.9804708     0.7563121    -0.4866982
H           6.8961139     0.8328843    -1.0778470
H           5.6364530     1.7514674    -0.1979201
C           4.8794732    -0.0158374    -1.2069039
H           5.2794741    -0.9901121    -1.5577090
H           4.6095090     0.5579366    -2.0986092
N           3.7209069    -0.1513793    -0.3368348
C           4.0517812    -0.9374113     0.8475741
H           4.4114338    -1.9561269     0.5905935
H           3.1498067    -1.0423675     1.4558354
C           5.1041553    -0.2149402     1.6736054
H           5.4332592    -0.7956564     2.5384943
H           4.7501570     0.7670616     1.9936640
28
023_C9H15N4+_0-8-9-21 (150,) energy =    -570.7526220
N           0.2020855     0.0493259    -1.2637130
C          -0.9790959     0.3664118    -0.7208875
H          -1.8003808     0.5341715    -1.4145071
C          -1.1572366     0.4838576     0.6568031
H          -2.1160375     0.7470463     1.0895290
C          -0.0383765     0.2418258     1.4471069
H          -0.0874107     0.3054706     2.5322254
N           1.1516491    -0.0863223     0.9226581
C           1.2122419    -0.1596033    -0.4121793
C           2.5251410    -0.5583183    -1.0693664
H           2.5361757    -0.0929964    -2.0577945
H           2.5202319    -1.6503471    -1.2419463
N           6.3267207    -0.0174813     0.8313620
H           6.7502252    -0.9147702     0.5628370
H           7.0325113     0.4838588     1.3820130
C           5.9919365     0.7629880    -0.4299135
H           6.9129913     0.8577537    -1.0099187
H           5.6534777     1.7471397    -0.0999001
C           4.8907108     0.0324969    -1.1920359
H           5.2868274    -0.9269656    -1.5853762
H           4.6311704     0.6488162    -2.0581648
N           3.7253465    -0.1329907    -0.3372506
C           4.0378828    -0.9725060     0.8140193
H           4.3851692    -1.9848306     0.5194848
H           3.1332949    -1.0805121     1.4165331
C           5.0908507    -0.2960287     1.6780491
H           5.4086934    -0.9160173     2.5195159
H           4.7387128     0.6731978     2.0366434
28
023_C9H15N4+_0-8-9-21 (165,) energy =    -570.7525981
N           0.1592801    -0.1459759    -1.2277848
C          -1.0204891     0.1390094    -0.6680124
H          -1.8869933     0.1125244    -1.3255512
C          -1.1447813     0.4570824     0.6848064
H          -2.1043064     0.6925889     1.1316114
C           0.0281356     0.4480839     1.4305697
H           0.0226287     0.6728167     2.4951843
N           1.2227864     0.1617095     0.8881977
C           1.2257273    -0.1123880    -0.4200027
C           2.5376926    -0.4547715    -1.1119195
H           2.5487483     0.0920530    -2.0592111
H           2.5212188    -1.5266560    -1.3815724
N           6.3225558    -0.0668439     0.8513824
H           6.7334301    -0.9648431     0.5660512
H           7.0285499     0.4057459     1.4266335
C           6.0250247     0.7530817    -0.3942892
H           6.9573233     0.8419863    -0.9570602
H           5.7024931     1.7355769    -0.0441707
C           4.9200255     0.0666426    -1.1913970
H           5.3015351    -0.8898851    -1.6058442
H           4.6854892     0.7111416    -2.0441422
N           3.7405556    -0.0961667    -0.3573702
C           4.0157999    -0.9747479     0.7722624
H           4.3448381    -1.9864335     0.4560533
H           3.1038583    -1.0779776     1.3633684
C           5.0684140    -0.3434976     1.6709685
H           5.3611596    -0.9918165     2.5001219
H           4.7265175     0.6218951     2.0490233
28
023_C9H15N4+_0-8-9-21 (180,) energy =    -570.7523487
N           0.1734582    -0.3559616    -1.1779683
C          -1.0122392    -0.1149604    -0.6112024
H          -1.8909304    -0.3353128    -1.2139325
C          -1.1283635     0.3885446     0.6853079
H          -2.0937342     0.5836365     1.1389855
C           0.0610128     0.6141009     1.3679684
H           0.0634800     0.9891785     2.3894168
N           1.2638190     0.3837917     0.8155059
C           1.2539505    -0.0787648    -0.4380952
C           2.5712815    -0.3411400    -1.1542783
H           2.5870279     0.2984973    -2.0437434
H           2.5574903    -1.3799315    -1.5288788
N           6.3193965    -0.1296978     0.8984725
H           6.7080422    -1.0340830     0.6023343
H           7.0263701     0.3069014     1.5003381
C           6.0781311     0.7272998    -0.3345129
H           7.0254223     0.7962222    -0.8746088
H           5.7813205     1.7123093     0.0308799
C           4.9684771     0.0971085    -1.1704700
H           5.3262340    -0.8616576    -1.6007462
H           4.7729617     0.7688566    -2.0121044
N           3.7669611    -0.0455845    -0.3656996
C           3.9866111    -0.9586522     0.7469994
H           4.2877855    -1.9740905     0.4157772
H           3.0615246    -1.0472950     1.3194686
C           5.0385344    -0.3823692     1.6833152
H           5.2906534    -1.0572842     2.5045426
H           4.7179951     0.5854349     2.0736327
