16
252_C5H7N3O_4-0-2-11 (-165,) energy =    -434.2415453
N           1.2317338    -0.7053956    -0.2906606
H           1.1557161     0.0958812     0.3252083
C           2.4977311    -1.0546431    -0.6421711
O           2.8096631    -2.0448535    -1.3060265
C           0.1139446    -1.6230098    -0.4073652
H          -0.1573806    -2.0526584     0.5658301
H           0.4139622    -2.4289120    -1.0788922
H          -0.7619341    -1.1152907    -0.8249724
C           4.6438843     1.4260057     0.8336631
H           4.8223503     2.3064207     1.4359897
N           3.3792468     0.9333567     0.6384223
C           3.5376903    -0.1311607    -0.1326497
N           4.8483484    -0.3397305    -0.4383461
H           5.1690281    -1.1072095    -1.0136939
C           5.5740202     0.6496894     0.1728028
H           6.6486328     0.7133520     0.0924826
16
252_C5H7N3O_4-0-2-11 (-150,) energy =    -434.2391115
N           1.2010488    -0.6525409    -0.4663022
H           1.1470849     0.1563997     0.1449116
C           2.4839667    -1.0275268    -0.7501956
O           2.8087863    -2.0398066    -1.3709721
C           0.1445945    -1.6464098    -0.3441030
H           0.0626027    -2.0260548     0.6833881
H           0.3829560    -2.4771946    -1.0099362
H          -0.8168889    -1.2166992    -0.6409288
C           4.6047336     1.3908493     0.8580578
H           4.7707908     2.2582286     1.4824131
N           3.3423545     0.9270181     0.5934403
C           3.5169426    -0.1298053    -0.1853166
N           4.8371760    -0.3590502    -0.4310437
H           5.1721314    -1.1311927    -0.9918462
C           5.5510021     0.6039053     0.2330069
H           6.6294614     0.6453721     0.2087892
16
252_C5H7N3O_4-0-2-11 (-135,) energy =    -434.2347777
N           1.1295320    -0.6596319    -0.5863590
H           1.0925617     0.1826200    -0.0175242
C           2.4265316    -1.0383881    -0.8392560
O           2.7574443    -2.0585649    -1.4406529
C           0.1483441    -1.6728199    -0.2039528
H           0.2321899    -1.9384904     0.8588088
H           0.3207982    -2.5655912    -0.8073155
H          -0.8628439    -1.3052430    -0.4003016
C           4.5285081     1.3147877     0.8837119
H           4.6861471     2.1688626     1.5282525
N           3.2697764     0.8800839     0.5622455
C           3.4546364    -0.1699215    -0.2242729
N           4.7798401    -0.4199339    -0.4224555
H           5.1233349    -1.1899636    -0.9810144
C           5.4840892     0.5184862     0.2840257
H           6.5632786     0.5371503     0.3066356
16
252_C5H7N3O_4-0-2-11 (-120,) energy =    -434.2289040
N           1.1210010    -0.6349334    -0.7511530
H           1.0891126     0.2437767    -0.2368911
C           2.4398688    -0.9943641    -0.9746900
O           2.7912102    -1.9994505    -1.5859341
C           0.2362030    -1.6310198    -0.1362021
H           0.4620343    -1.7772895     0.9292292
H           0.3588312    -2.5811321    -0.6597004
H          -0.8033763    -1.3083510    -0.2396195
C           4.4787975     1.2761157     0.9234876
H           4.6126211     2.1051009     1.6050917
N           3.2339305     0.8658512     0.5279272
C           3.4466085    -0.1588519    -0.2856143
N           4.7788471    -0.4129367    -0.4311721
H           5.1432369    -1.1670898    -0.9981045
C           5.4557016     0.4915772     0.3415783
H           6.5326853     0.4981085     0.4173309
16
252_C5H7N3O_4-0-2-11 (-105,) energy =    -434.2222860
N           1.1008399    -0.6220194    -0.8888933
H           1.0669981     0.2991199    -0.4518535
C           2.4429206    -0.9550817    -1.0931913
O           2.8144443    -1.9304239    -1.7350476
C           0.3304293    -1.5562400    -0.0496162
H           0.6860290    -1.5709755     0.9903408
H           0.4109634    -2.5617214    -0.4688335
H          -0.7219265    -1.2603666    -0.0629403
C           4.4159166     1.2269626     0.9693758
H           4.5265217     2.0291026     1.6863538
N           3.1870696     0.8403649     0.5082528
C           3.4268438    -0.1553562    -0.3345717
N           4.7639411    -0.4121290    -0.4344657
H           5.1489800    -1.1463909    -1.0137405
C           5.4122818     0.4581130     0.3982179
H           6.4853104     0.4551020     0.5183218
16
252_C5H7N3O_4-0-2-11 (-90,) energy =    -434.2158599
N           1.0768137    -0.6631303    -1.0260741
H           1.0235784     0.2997275    -0.6885015
C           2.4468103    -0.9503130    -1.2156454
O           2.8518610    -1.8696189    -1.9121270
C           0.4373153    -1.4980491     0.0135768
H           0.8909342    -1.3606374     1.0053478
H           0.5143678    -2.5499419    -0.2736710
H          -0.6224268    -1.2346774     0.0661479
C           4.3279175     1.1499344     1.0094081
H           4.4060416     1.9213768     1.7634032
N           3.1202926     0.7743489     0.4895278
C           3.3980076    -0.1832521    -0.3864423
N           4.7414705    -0.4247016    -0.4492732
H           5.1560030    -1.1239253    -1.0511277
C           5.3515486     0.4150926     0.4401718
H           6.4199205     0.4171530     0.5967925
16
252_C5H7N3O_4-0-2-11 (-75,) energy =    -434.2224803
N           1.1250521    -0.5165438    -0.9455388
H           0.6795749    -0.8039405    -1.8175300
C           2.4773116    -0.8242901    -1.1116596
O           2.9080029    -1.4109799    -2.1027990
C           0.3949054    -1.1217990     0.1843691
H          -0.6264755    -0.7318903     0.1886880
H           0.8769160    -0.8272765     1.1187786
H           0.3584440    -2.2181730     0.1213875
C           4.4299023     0.8735660     1.3868119
H           4.5459420     1.4726326     2.2800011
N           3.1946160     0.5321334     0.9106544
C           3.4271769    -0.1824320    -0.1821107
N           4.7689374    -0.3213055    -0.4090871
H           5.1482829    -0.8202770    -1.2028371
C           5.4257565     0.3573167     0.5786375
H           6.5026637     0.4229976     0.6194864
16
252_C5H7N3O_4-0-2-11 (-60,) energy =    -434.2280651
N           1.1415308    -0.6214250    -0.9914133
H           0.6906355    -0.9862956    -1.8287477
C           2.5005414    -0.8296243    -1.1503884
O           2.9752625    -1.3363635    -2.1676322
C           0.4332075    -1.0461766     0.2262176
H          -0.5942849    -0.6752934     0.1784298
H           0.9222195    -0.6041224     1.0950033
H           0.4107582    -2.1394459     0.3335214
C           4.3808623     0.7971785     1.4586093
H           4.4744074     1.3467843     2.3855332
N           3.1583066     0.4327716     0.9646822
C           3.4154924    -0.2086545    -0.1671956
N           4.7601612    -0.2767045    -0.4034341
H           5.1524936    -0.7134482    -1.2271724
C           5.3933264     0.3687828     0.6215094
H           6.4670225     0.4721141     0.6668243
16
252_C5H7N3O_4-0-2-11 (-45,) energy =    -434.2318582
N           1.1498905    -0.7472215    -1.0336288
H           0.6976175    -1.1646529    -1.8427587
C           2.5100845    -0.8441012    -1.1996710
O           3.0126290    -1.2814514    -2.2380178
C           0.4451266    -0.9921614     0.2287968
H          -0.5790532    -0.6200213     0.1349161
H           0.9463937    -0.4489058     1.0293896
H           0.4099820    -2.0614024     0.4796343
C           4.3639013     0.7225131     1.4749073
H           4.4542096     1.2296389     2.4260067
N           3.1460840     0.3384345     0.9824728
C           3.4047882    -0.2409111    -0.1825112
N           4.7463454    -0.2477877    -0.4421321
H           5.1354627    -0.6320810    -1.2932930
C           5.3748727     0.3693211     0.6028071
H           6.4454646     0.5035566     0.6382650
16
252_C5H7N3O_4-0-2-11 (-30,) energy =    -434.2339669
N           1.1770991    -0.8854096    -1.0243093
H           0.7344449    -1.3296828    -1.8221568
C           2.5316616    -0.8583624    -1.1966150
O           3.0604737    -1.2290713    -2.2497923
C           0.4437584    -0.9648501     0.2374954
H          -0.5647978    -0.5685496     0.0854203
H           0.9548059    -0.3647350     0.9890371
H           0.3633181    -1.9999874     0.5972793
C           4.3416566     0.6658264     1.5390318
H           4.4229177     1.1304396     2.5123782
N           3.1344533     0.2531721     1.0425525
C           3.4011351    -0.2609177    -0.1513354
N           4.7376191    -0.1942108    -0.4267294
H           5.1285579    -0.5259758    -1.2990597
C           5.3540133     0.3982539     0.6392233
H           6.4187418     0.5738210     0.6697144
16
252_C5H7N3O_4-0-2-11 (-15,) energy =    -434.2348573
N           1.1997473    -1.0156809    -1.0069839
H           0.7508184    -1.4574193    -1.8011338
C           2.5380398    -0.8815194    -1.2099695
O           3.0664066    -1.2035633    -2.2805785
C           0.4333301    -0.9275226     0.2302748
H          -0.5202665    -0.4265896     0.0321217
H           0.9966025    -0.3521008     0.9632054
H           0.2251175    -1.9242253     0.6422222
C           4.3566520     0.6172519     1.5380360
H           4.4462484     1.0490596     2.5256279
N           3.1522297     0.1776789     1.0574322
C           3.4052847    -0.2834535    -0.1609924
N           4.7300461    -0.1546654    -0.4680152
H           5.1083358    -0.4448882    -1.3606182
C           5.3533314     0.4196549     0.6037620
H           6.4117439     0.6318416     0.6142487
16
252_C5H7N3O_4-0-2-11 (0,) energy =    -434.2350616
N           1.2457315    -1.1516577    -0.9618439
H           0.7999466    -1.5694946    -1.7700448
C           2.5626356    -0.9070154    -1.1870347
O           3.0963204    -1.1830381    -2.2682897
C           0.4261607    -0.9099382     0.2179460
H          -0.4007570    -0.2309578    -0.0239325
H           1.0401741    -0.4611014     0.9970723
H           0.0051291    -1.8521821     0.5898771
C           4.3498659     0.5941579     1.5819257
H           4.4349521     0.9975860     2.5818265
N           3.1591291     0.1157396     1.1039425
C           3.4136344    -0.2941308    -0.1324106
N           4.7254600    -0.0920638    -0.4544655
H           5.1030929    -0.3417714    -1.3595433
C           5.3391741     0.4743257     0.6270399
H           6.3867601     0.7349220     0.6292518
16
252_C5H7N3O_4-0-2-11 (15,) energy =    -434.2348573
N           1.3934109    -1.7495136     0.0721718
H           1.0886262    -2.7159626     0.0515237
C           2.7424626    -1.6556637    -0.0743863
O           3.4586193    -2.6616500    -0.1391818
C           0.3686384    -0.7222930    -0.0714811
H          -0.1036223    -0.7659910    -1.0622028
H           0.8206149     0.2592339     0.0622946
H          -0.4046445    -0.8714818     0.6896505
C           4.0447330     1.7220221    -0.0966813
H           3.9570065     2.7994099    -0.0597696
N           2.9419443     0.9130970    -0.0308506
C           3.4089108    -0.3270611    -0.1028745
N           4.7701768    -0.3320057    -0.2158943
H           5.3042465    -1.1895998    -0.2739847
C           5.1943731     0.9668701    -0.2122512
H           6.2366824     1.2370536    -0.2894683
16
252_C5H7N3O_4-0-2-11 (30,) energy =    -434.2339669
N           1.3984846    -1.7191006     0.2019162
H           1.1001597    -2.6888133     0.1786436
C           2.7370114    -1.6357373    -0.0562638
O           3.4408961    -2.6444916    -0.1712029
C           0.3703752    -0.7282941    -0.1104042
H           0.0263467    -0.8124389    -1.1505908
H           0.7721600     0.2707546     0.0526703
H          -0.4847440    -0.8851149     0.5540844
C           4.0385203     1.7390262    -0.0491718
H           3.9520472     2.8146570     0.0243989
N           2.9416647     0.9255451     0.0471186
C           3.4063991    -0.3103509    -0.0846351
N           4.7602849    -0.3084163    -0.2675839
H           5.2942155    -1.1614040    -0.3733728
C           5.1824834     0.9909655    -0.2437742
H           6.2195331     1.2663261    -0.3625365
16
252_C5H7N3O_4-0-2-11 (45,) energy =    -434.2318582
N           1.3985624    -1.6791475     0.3372914
H           1.0984884    -2.6504321     0.3445956
C           2.7196554    -1.6366902    -0.0368684
O           3.3833856    -2.6619950    -0.2106570
C           0.3691726    -0.7464326    -0.1326080
H           0.0897235    -0.9348930    -1.1784672
H           0.7396227     0.2736743    -0.0351777
H          -0.5195352    -0.8623398     0.4942973
C           4.0854850     1.7063260     0.0182599
H           4.0204881     2.7796027     0.1356255
N           2.9823925     0.9056914     0.1417822
C           3.4211052    -0.3303552    -0.0569071
N           4.7632714    -0.3414823    -0.3132129
H           5.2811677    -1.1957140    -0.4733386
C           5.2065196     0.9503302    -0.2630186
H           6.2408339     1.2153292    -0.4224328
16
252_C5H7N3O_4-0-2-11 (60,) energy =    -434.2280651
N           1.4015886    -1.5939762     0.4393391
H           1.1188924    -2.5704673     0.5034800
C           2.7007112    -1.5880150    -0.0379186
O           3.3207517    -2.6254994    -0.2747854
C           0.3492060    -0.7715119    -0.1777546
H           0.1136434    -1.0973416    -1.2003009
H           0.6735809     0.2695983    -0.1920296
H          -0.5544041    -0.8466155     0.4333321
C           4.1185153     1.7230470     0.0872272
H           4.0699256     2.7912234     0.2504557
N           3.0146548     0.9277988     0.2303040
C           3.4330037    -0.3022666    -0.0354828
N           4.7618033    -0.3151056    -0.3559521
H           5.2669143    -1.1640224    -0.5737083
C           5.2193347     0.9702278    -0.2744392
H           6.2488455     1.2328466    -0.4659931
16
252_C5H7N3O_4-0-2-11 (75,) energy =    -434.2224803
N           1.3923878    -1.5148997     0.5232297
H           1.1367960    -2.4922119     0.6679673
C           2.6698036    -1.5547610    -0.0402692
O           3.2276558    -2.6066743    -0.3474118
C           0.3102252    -0.8450091    -0.2226317
H           0.1033739    -1.3289792    -1.1871614
H           0.5862350     0.1978888    -0.3910990
H          -0.5973336    -0.8644797     0.3866499
C           4.1963212     1.6954543     0.1683661
H           4.1860750     2.7557921     0.3821685
N           3.0798175     0.9230029     0.3295341
C           3.4523695    -0.3037862    -0.0096013
N           4.7639438    -0.3358806    -0.3967304
H           5.2384921    -1.1836590    -0.6777807
C           5.2590246     0.9323764    -0.2785774
H           6.2862622     1.1770337    -0.5036071
16
252_C5H7N3O_4-0-2-11 (90,) energy =    -434.2158599
N           1.3401925    -1.6516419     0.4305042
H           1.3705724    -0.9849146     1.2040888
C           2.6437732    -1.7027260    -0.1111443
O           3.0457663    -2.6193541    -0.8129072
C           0.3277921    -1.1356888    -0.5159129
H          -0.6499952    -1.1657763    -0.0278440
H           0.2922157    -1.7868699    -1.3931963
H           0.5361114    -0.1059145    -0.8390710
C           4.2418177     1.4403675     0.5727247
H           4.2605985     2.4339887     0.9994568
N           3.1562157     0.6205378     0.7107216
C           3.4750356    -0.4951764     0.0665237
N           4.7295528    -0.4181447    -0.4695691
H           5.1547481    -1.1628113    -1.0059100
C           5.2331737     0.8144348    -0.1602608
H           6.2125780     1.1377033    -0.4799745
16
252_C5H7N3O_4-0-2-11 (105,) energy =    -434.2222860
N           1.3358251    -1.5071372     0.4156569
H           1.3527654    -0.7627851     1.1130096
C           2.6085880    -1.5939632    -0.1556609
O           2.9552733    -2.4881050    -0.9182994
C           0.2316636    -1.2332302    -0.5205553
H          -0.7170955    -1.3097022     0.0172019
H           0.2405149    -1.9856793    -1.3123651
H           0.3082988    -0.2344704    -0.9730862
C           4.3489231     1.4484204     0.6338991
H           4.4132063     2.4256840     1.0927494
N           3.2265162     0.6741791     0.7475161
C           3.4943049    -0.4324873     0.0671580
N           4.7493663    -0.3961023    -0.4687873
H           5.1347292    -1.1386869    -1.0371342
C           5.3088949     0.8030675    -0.1224528
H           6.3009839     1.0919789    -0.4356838
16
252_C5H7N3O_4-0-2-11 (120,) energy =    -434.2289040
N           1.3189675    -1.3840434     0.3527215
H           1.3109722    -0.5856145     0.9852233
C           2.5699079    -1.5021475    -0.2301463
O           2.8849216    -2.3832899    -1.0249017
C           0.1511271    -1.3570833    -0.5352922
H          -0.7583032    -1.5022302     0.0541147
H           0.2352395    -2.1764047    -1.2518404
H           0.0753818    -0.4078751    -1.0837520
C           4.4288646     1.4364687     0.6783221
H           4.5288133     2.3959084     1.1674052
N           3.2709088     0.7097225     0.7524706
C           3.5006550    -0.3860600     0.0428103
N           4.7628804    -0.3907143    -0.4742400
H           5.1221011    -1.1330477    -1.0597672
C           5.3703594     0.7719341    -0.0835245
H           6.3789452     1.0249271    -0.3740700
16
252_C5H7N3O_4-0-2-11 (135,) energy =    -434.2347776
N           1.3096212    -1.2650376     0.2898551
H           1.2696765    -0.4291448     0.8677782
C           2.5455651    -1.4144258    -0.2929136
O           2.8438409    -2.2979066    -1.0944402
C           0.1075275    -1.4857844    -0.5112293
H          -0.7430580    -1.6960398     0.1433335
H           0.2761769    -2.3496119    -1.1563582
H          -0.1293438    -0.6140481    -1.1365673
C           4.4988550     1.4284890     0.7202397
H           4.6265517     2.3718563     1.2335386
N           3.3102168     0.7482076     0.7530118
C           3.5120768    -0.3400066     0.0247895
N           4.7825659    -0.3848744    -0.4669451
H           5.1237853    -1.1300774    -1.0595332
C           5.4289959     0.7429841    -0.0359238
H           6.4536673     0.9594585    -0.2980334
16
252_C5H7N3O_4-0-2-11 (150,) energy =    -434.2391120
N           1.3313202    -1.1221414     0.2281071
H           1.2632687    -0.2644002     0.7671123
C           2.5615315    -1.3068957    -0.3372234
O           2.8545077    -2.2062705    -1.1251694
C           0.1253416    -1.5758761    -0.4490747
H          -0.6434389    -1.8420575     0.2825853
H           0.3790123    -2.4603466    -1.0353367
H          -0.2753921    -0.8057318    -1.1220322
C           4.5892820     1.4460803     0.7756760
H           4.7377564     2.3753123     1.3087930
N           3.3745139     0.8113983     0.7637729
C           3.5566847    -0.2720841     0.0244212
N           4.8369947    -0.3581474    -0.4332108
H           5.1661026    -1.1079800    -1.0268056
C           5.5140484     0.7370316     0.0356942
H           6.5543683     0.9155149    -0.1907137
16
252_C5H7N3O_4-0-2-11 (165,) energy =    -434.2415447
N           1.2926246    -0.9712748     0.0947598
H           1.2060881    -0.1183818     0.6354207
C           2.5278900    -1.2078357    -0.4218088
O           2.8226628    -2.1345112    -1.1787367
C           0.1008831    -1.6177814    -0.4213915
H          -0.5459737    -1.9484376     0.3980940
H           0.4183564    -2.4871131    -0.9992190
H          -0.4715269    -0.9458501    -1.0742395
C           4.6255773     1.4430818     0.8054503
H           4.7941512     2.3549069     1.3621507
N           3.3854054     0.8620927     0.7385926
C           3.5487941    -0.2157515    -0.0125933
N           4.8390769    -0.3488841    -0.4276225
H           5.1569836    -1.1049061    -1.0194645
C           5.5453249     0.7079768     0.0854929
H           6.6004902     0.8430720    -0.0980269
16
252_C5H7N3O_4-0-2-11 (180,) energy =    -434.2422728
N           1.2429295    -0.8399457    -0.0831956
H           1.1545977    -0.0120021     0.4932142
C           2.4922101    -1.1392514    -0.5195873
O           2.7943336    -2.1024207    -1.2272895
C           0.0806685    -1.6415445    -0.4074283
H          -0.3888876    -2.0437093     0.4983181
H           0.4163440    -2.4701269    -1.0330214
H          -0.6640351    -1.0550698    -0.9588346
C           4.6313358     1.4260991     0.8155440
H           4.8107993     2.3245512     1.3903099
N           3.3740335     0.8928484     0.6907140
C           3.5282120    -0.1820010    -0.0664659
N           4.8283405    -0.3584773    -0.4308464
H           5.1437245    -1.1274582    -1.0071315
C           5.5522264     0.6639846     0.1261078
H           6.6187130     0.7598024    -0.0106363
