16
252_C5H7N3O_0-2-11-10 (-165,) energy =    -434.2223631
N           1.4262748    -1.0928090    -0.8569676
H           1.9594340    -0.9843699    -1.7116810
C           2.1715254    -1.2190573     0.3075900
O           1.7827097    -1.8504111     1.2756664
C           0.1920163    -1.8602080    -0.9804458
H          -0.3669243    -1.4973746    -1.8470458
H          -0.4034077    -1.7113542    -0.0784452
H           0.3751598    -2.9371515    -1.0902327
C           5.3563249     0.3741029     0.8149856
H           6.2944929     0.4667084     1.3453616
N           4.4436394    -0.5909856     1.1473687
C           3.4374172    -0.4351944     0.3068123
N           3.6757980     0.6100217    -0.5603038
H           2.9977946     1.0205213    -1.1867113
C           4.8987331     1.1431206    -0.2317325
H           5.3153332     1.9920855    -0.7531030
16
252_C5H7N3O_0-2-11-10 (-150,) energy =    -434.2229172
N           1.6687013    -1.4363935    -0.0606049
H           1.8797050    -1.3653422     0.9270837
C           2.1666781    -0.4269312    -0.8667180
O           1.6496343    -0.1027385    -1.9228900
C           0.4001776    -2.0638381    -0.4084883
H           0.2896333    -2.9897163     0.1623054
H           0.4067884    -2.2942563    -1.4748562
H          -0.4587721    -1.4098715    -0.2087886
C           5.0317658     1.5227143     0.1113917
H           5.5850487     2.4520093     0.1275332
N           3.8280368     1.4228532    -0.5371260
C           3.4295567     0.1781832    -0.3547331
N           4.3362659    -0.5265295     0.4060429
H           4.3103094    -1.5220558     0.5769996
C           5.3772720     0.3243580     0.6937961
H           6.2397665     0.0077499     1.2610929
16
252_C5H7N3O_0-2-11-10 (-135,) energy =    -434.2221299
N           1.6497571    -1.3865273    -0.0454432
H           1.8622468    -1.2607568     0.9356724
C           2.2281616    -0.4964471    -0.9262749
O           1.7838554    -0.2712993    -2.0403382
C           0.3815090    -2.0201445    -0.3776003
H           0.2487669    -2.9116384     0.2414265
H           0.4037758    -2.3078327    -1.4297303
H          -0.4718651    -1.3458690    -0.2277759
C           4.9819755     1.5387083     0.2010766
H           5.4740127     2.4968785     0.2996706
N           3.7861747     1.4178355    -0.4622978
C           3.4734911     0.1384644    -0.3952178
N           4.4165109    -0.5675707     0.3158837
H           4.4379666    -1.5712646     0.4301098
C           5.4015947     0.3208081     0.6830043
H           6.2817302     0.0119553     1.2268338
16
252_C5H7N3O_0-2-11-10 (-120,) energy =    -434.2205408
N           1.5978381    -1.3348633    -0.0141412
H           1.7940750    -1.1518995     0.9608026
C           2.2638388    -0.5736207    -0.9439409
O           1.9090818    -0.4697454    -2.1077188
C           0.3368784    -1.9804788    -0.3474405
H           0.1668628    -2.8208819     0.3311628
H           0.3980452    -2.3466199    -1.3733957
H          -0.5120456    -1.2874550    -0.2826522
C           4.9149842     1.5466187     0.2884217
H           5.3434892     2.5250134     0.4585913
N           3.7059162     1.4002740    -0.3495065
C           3.4869355     0.1012771    -0.3931287
N           4.4974261    -0.5960659     0.2237838
H           4.5813991    -1.6018432     0.2689668
C           5.4321545     0.3246265     0.6449866
H           6.3481552     0.0308513     1.1351084
16
252_C5H7N3O_0-2-11-10 (-105,) energy =    -434.2194398
N           1.4858453    -1.2679026     0.0229797
H           1.6124795    -0.9793813     0.9837063
C           2.2806328    -0.6731341    -0.9193251
O           2.0925355    -0.7618729    -2.1236095
C           0.2531550    -1.9509813    -0.3372036
H           0.0869032    -2.7997656     0.3329867
H           0.3564269    -2.3090676    -1.3622825
H          -0.6153206    -1.2815196    -0.2895265
C           4.8249349     1.5805882     0.3213877
H           5.1873376     2.5792525     0.5239774
N           3.5776121     1.3730809    -0.2239782
C           3.4578480     0.0657537    -0.3335584
N           4.5745499    -0.5806712     0.1304764
H           4.7399107    -1.5768772     0.1059587
C           5.4663509     0.3875823     0.5430909
H           6.4388508     0.1398128     0.9409134
16
252_C5H7N3O_0-2-11-10 (-90,) energy =    -434.2207371
N           1.3903424    -1.2137042     0.0681013
H           1.4103218    -0.8083370     0.9945050
C           2.3256682    -0.7654754    -0.8194427
O           2.3272921    -1.0388659    -2.0123911
C           0.1806803    -1.8948704    -0.3658955
H          -0.0954575    -2.6641653     0.3615258
H           0.3888591    -2.3618904    -1.3293675
H          -0.6602119    -1.2002120    -0.4885125
C           4.7740690     1.5910288     0.4119606
H           5.0783250     2.5981631     0.6624703
N           3.4833854     1.3134557     0.0193776
C           3.4525833     0.0107457    -0.1837719
N           4.6784584    -0.5583408     0.0368697
H           4.9220430    -1.5243343    -0.1296834
C           5.5361400     0.4496083     0.4231866
H           6.5692468     0.2597699     0.6723612
16
252_C5H7N3O_0-2-11-10 (-75,) energy =    -434.2246023
N           1.3441064    -1.1143924     0.0811335
H           1.2935497    -0.5947848     0.9479758
C           2.3811433    -0.8079549    -0.7504580
O           2.5092700    -1.2479612    -1.8876087
C           0.1461460    -1.7866751    -0.3955760
H          -0.2160785    -2.4875896     0.3627900
H           0.4123275    -2.3355491    -1.2998300
H          -0.6554893    -1.0769111    -0.6372755
C           4.7217740     1.6365792     0.4937505
H           4.9752951     2.6428049     0.7985785
N           3.4251402     1.2849138     0.1984444
C           3.4701713    -0.0010993    -0.1022859
N           4.7529063    -0.4756818    -0.0607545
H           5.0443696    -1.3976426    -0.3530661
C           5.5646089     0.5633307     0.3326361
H           6.6280821     0.4407918     0.4722514
16
252_C5H7N3O_0-2-11-10 (-60,) energy =    -434.2296901
N           1.3234149    -1.0756354     0.0818390
H           1.2387823    -0.4525840     0.8754289
C           2.4276074    -0.9026919    -0.6991684
O           2.6249043    -1.4789274    -1.7656948
C           0.1292588    -1.7426265    -0.4096721
H          -0.3171842    -2.3452833     0.3873134
H           0.4286626    -2.3938847    -1.2319598
H          -0.6194849    -1.0295896    -0.7786751
C           4.6792372     1.5975908     0.5795577
H           4.8925316     2.5917414     0.9482255
N           3.3907831     1.1838441     0.3423484
C           3.4952288    -0.0706332    -0.0654588
N           4.8034411    -0.4569794    -0.1512311
H           5.1187422    -1.3290126    -0.5526420
C           5.5740149     0.5982138     0.2726874
H           6.6504241     0.5390896     0.3306218
16
252_C5H7N3O_0-2-11-10 (-45,) energy =    -434.2347375
N           1.3115120    -1.0376326     0.0754283
H           1.2144532    -0.3276887     0.7914873
C           2.4634372    -0.9919214    -0.6504953
O           2.7016274    -1.6845589    -1.6385710
C           0.1211374    -1.7133192    -0.4105300
H          -0.3831290    -2.2257494     0.4147901
H           0.4369678    -2.4476274    -1.1529434
H          -0.5855586    -1.0169470    -0.8807533
C           4.6437448     1.5520258     0.6557724
H           4.8274545     2.5273909     1.0855483
N           3.3684152     1.0836320     0.4591346
C           3.5171194    -0.1291557    -0.0508323
N           4.8344388    -0.4348918    -0.2337961
H           5.1612882    -1.2626359    -0.7131740
C           5.5708007     0.6284617     0.2249091
H           6.6503143     0.6290872     0.2169431
16
252_C5H7N3O_0-2-11-10 (-30,) energy =    -434.2388252
N           1.2938564    -0.9820576     0.0442299
H           1.1966436    -0.2159655     0.6999891
C           2.4849065    -1.0559202    -0.6083568
O           2.7506180    -1.8443518    -1.5161999
C           0.1113075    -1.6845768    -0.4174853
H          -0.4290627    -2.1148337     0.4319186
H           0.4399151    -2.4867222    -1.0800160
H          -0.5687790    -1.0245824    -0.9719317
C           4.6219944     1.5089313     0.7275110
H           4.7905362     2.4589632     1.2162409
N           3.3584052     1.0023710     0.5585457
C           3.5289364    -0.1618548    -0.0489844
N           4.8451989    -0.4017517    -0.3094746
H           5.1746638    -1.1984568    -0.8377569
C           5.5622158     0.6549890     0.1903475
H           6.6389870     0.7032668     0.1303965
16
252_C5H7N3O_0-2-11-10 (-15,) energy =    -434.2414037
N           1.2698010    -0.9271356    -0.0124642
H           1.1824659    -0.1204898     0.5938090
C           2.4912450    -1.1262664    -0.5709828
O           2.7737332    -2.0121045    -1.3799387
C           0.0934384    -1.6741673    -0.4107991
H          -0.4253313    -2.0752472     0.4668949
H           0.4250880    -2.5008580    -1.0409828
H          -0.6079969    -1.0517249    -0.9809363
C           4.6289941     1.4457373     0.7520652
H           4.8013233     2.3727301     1.2819545
N           3.3685262     0.9240230     0.6097979
C           3.5340203    -0.1992337    -0.0709981
N           4.8424151    -0.4072490    -0.3869910
H           5.1626929    -1.1896475    -0.9419920
C           5.5615076     0.6360629     0.1369440
H           6.6336718     0.7091928     0.0348816
16
252_C5H7N3O_0-2-11-10 (0,) energy =    -434.2422729
N           1.2379842    -0.8420626    -0.0769652
H           1.1509666    -0.0148817     0.5007487
C           2.4864807    -1.1414355    -0.5155991
O           2.7872265    -2.1040416    -1.2246612
C           0.0751079    -1.6436941    -0.3989099
H          -0.3917623    -2.0472948     0.5076063
H           0.4094442    -2.4712945    -1.0265038
H          -0.6713616    -1.0567848    -0.9474499
C           4.6282358     1.4232958     0.8165357
H           4.8088292     2.3217745     1.3909050
N           3.3706013     0.8904534     0.6933842
C           3.5234589    -0.1847144    -0.0636195
N           4.8232091    -0.3622126    -0.4288385
H           5.1367148    -1.1283651    -1.0098972
C           5.5480661     0.6604252     0.1265021
H           6.6146694     0.7549275    -0.0102364
16
252_C5H7N3O_0-2-11-10 (15,) energy =    -434.2414037
N           1.2375880    -0.8119213    -0.1826508
H           1.1390496     0.0335498     0.3663050
C           2.5076859    -1.1851303    -0.4844558
O           2.8292707    -2.2113568    -1.0864135
C           0.0904380    -1.6631312    -0.4276074
H          -0.3255447    -2.0613542     0.5066757
H           0.4238244    -2.4956278    -1.0491759
H          -0.6950020    -1.1108915    -0.9552803
C           4.6494571     1.3725990     0.8594745
H           4.8384842     2.2396738     1.4777332
N           3.3959190     0.8260756     0.7538530
C           3.5330113    -0.1954827    -0.0769200
N           4.8228739    -0.3372258    -0.4906689
H           5.1339366    -1.0867271    -1.0941901
C           5.5538997     0.6634075     0.0962124
H           6.6129687     0.7833764    -0.0749085
16
252_C5H7N3O_0-2-11-10 (30,) energy =    -434.2388252
N           1.2366774    -0.7776120    -0.2577409
H           1.1095896     0.0953094     0.2404806
C           2.5232192    -1.1930094    -0.4066750
O           2.8707686    -2.2741369    -0.8828885
C           0.1072504    -1.6701196    -0.4392915
H          -0.2861127    -2.0355786     0.5184279
H           0.4501200    -2.5232766    -1.0265994
H          -0.6964558    -1.1585639    -0.9787121
C           4.6598566     1.3734534     0.9268208
H           4.8597177     2.2114641     1.5807455
N           3.4127534     0.8079292     0.8448069
C           3.5289597    -0.1620014    -0.0492435
N           4.8067549    -0.2643111    -0.5126274
H           5.1173463    -0.9935214    -1.1404440
C           5.5442636     0.7191420     0.0952687
H           6.5927782     0.8684834    -0.1137173
16
252_C5H7N3O_0-2-11-10 (45,) energy =    -434.2347375
N           1.2360235    -0.7676977    -0.3231189
H           1.0841523     0.1383013     0.1038261
C           2.5244679    -1.2102618    -0.3289951
O           2.8826252    -2.3319732    -0.6843280
C           0.1099008    -1.6731914    -0.4701884
H          -0.3238984    -1.9528421     0.4988716
H           0.4725191    -2.5748538    -0.9658173
H          -0.6674525    -1.2089110    -1.0851585
C           4.7061534     1.3287459     0.9845655
H           4.9397529     2.1256670     1.6774880
N           3.4614519     0.7508089     0.9494626
C           3.5238018    -0.1531169    -0.0159719
N           4.7716291    -0.2103023    -0.5654604
H           5.0619993    -0.9075697    -1.2372471
C           5.5391115     0.7417416     0.0573908
H           6.5688657     0.9203386    -0.2130214
16
252_C5H7N3O_0-2-11-10 (60,) energy =    -434.2296901
N           1.2391962    -0.7744737    -0.3627521
H           1.0645577     0.1704929    -0.0438788
C           2.5180384    -1.2261847    -0.2225994
O           2.8771668    -2.3812246    -0.4355820
C           0.1123779    -1.6823046    -0.4991075
H          -0.3842466    -1.8709852     0.4616036
H           0.4938887    -2.6272294    -0.8883421
H          -0.6182580    -1.2685276    -1.2009992
C           4.7670939     1.2832928     1.0425737
H           5.0475777     2.0371267     1.7656291
N           3.5295770     0.6873637     1.0740190
C           3.5167314    -0.1475994     0.0475686
N           4.7173940    -0.1492758    -0.6054599
H           4.9693926    -0.7948940    -1.3407566
C           5.5248591     0.7739656     0.0130454
H           6.5246809     0.9887680    -0.3329679
16
252_C5H7N3O_0-2-11-10 (75,) energy =    -434.2246023
N           1.2524113    -0.7864767    -0.4028999
H           1.0738365     0.1909250    -0.2111675
C           2.5030946    -1.2441879    -0.1076282
O           2.8376914    -2.4226882    -0.1557480
C           0.1173160    -1.6835857    -0.5480769
H          -0.4625015    -1.7671828     0.3801612
H           0.5055908    -2.6691107    -0.8084110
H          -0.5402448    -1.3282038    -1.3474041
C           4.8360450     1.2278097     1.0960677
H           5.1730811     1.9353172     1.8414018
N           3.6161376     0.6017171     1.2054567
C           3.5141723    -0.1585200     0.1293813
N           4.6431357    -0.0831280    -0.6401134
H           4.8362048    -0.6531443    -1.4514176
C           5.4947092     0.8132709    -0.0364122
H           6.4506071     1.0754895    -0.4641788
16
252_C5H7N3O_0-2-11-10 (90,) energy =    -434.2207371
N           1.2826911    -0.8286359    -0.5000547
H           1.1365473     0.1708962    -0.4498264
C           2.4751215    -1.2999565    -0.0316056
O           2.7321044    -2.4866245     0.1221802
C           0.1240965    -1.6924390    -0.6647503
H          -0.5259601    -1.6805300     0.2195396
H           0.4862373    -2.7101227    -0.8160701
H          -0.4553393    -1.3767273    -1.5375565
C           4.8987605     1.1450396     1.0693485
H           5.2980207     1.8123515     1.8209683
N           3.7219241     0.4602826     1.2771830
C           3.5201549    -0.2309047     0.1722750
N           4.5333378    -0.0392515    -0.7288591
H           4.6413730    -0.5204036    -1.6103565
C           5.4251334     0.8466574    -0.1625683
H           6.3127756     1.1770968    -0.6805810
16
252_C5H7N3O_0-2-11-10 (105,) energy =    -434.2194398
N           1.3757279    -0.8740001    -0.5581920
H           1.3023244     0.1299871    -0.6525201
C           2.4734467    -1.3626986     0.0972182
O           2.5844406    -2.5211484     0.4703542
C           0.1761714    -1.6755727    -0.7436608
H          -0.5476104    -1.5237409     0.0673809
H           0.4727806    -2.7251788    -0.7488964
H          -0.2978414    -1.4234551    -1.6970648
C           4.9683500     1.0676492     1.0775098
H           5.4336538     1.6982525     1.8228559
N           3.8835676     0.2788027     1.3893838
C           3.5725983    -0.3446262     0.2713096
N           4.4068581     0.0191511    -0.7543089
H           4.3992291    -0.3583117    -1.6912376
C           5.3176413     0.9194898    -0.2415330
H           6.0999486     1.3519719    -0.8468123
16
252_C5H7N3O_0-2-11-10 (120,) energy =    -434.2205408
N           1.4802372    -0.9141861    -0.6347961
H           1.4513397     0.0740034    -0.8472734
C           2.4807975    -1.3495661     0.2000083
O           2.4559728    -2.4257526     0.7764007
C           0.2533937    -1.6818153    -0.7881832
H          -0.4520216    -1.5021023     0.0335491
H           0.5087662    -2.7425541    -0.7898482
H          -0.2249464    -1.4194201    -1.7358248
C           5.0565830     1.0401704     1.0349889
H           5.5895417     1.6449444     1.7561227
N           4.0421884     0.1975397     1.4238227
C           3.6214906    -0.3799480     0.3162264
N           4.3071479     0.0845555    -0.7801631
H           4.2027356    -0.2474014    -1.7286269
C           5.2484420     0.9817459    -0.3242922
H           5.9456674     1.4704716    -0.9880726
16
252_C5H7N3O_0-2-11-10 (135,) energy =    -434.2221299
N           1.5287145    -0.9535393    -0.6842517
H           1.5038927     0.0210132    -0.9547872
C           2.4556220    -1.3099587     0.2730712
O           2.3537931    -2.3097572     0.9653651
C           0.2967054    -1.7167643    -0.8252959
H          -0.4377254    -1.4679338    -0.0480977
H           0.5351688    -2.7777084    -0.7371430
H          -0.1398330    -1.5216569    -1.8086287
C           5.1411384     0.9694430     1.0402759
H           5.7492443     1.5124510     1.7510931
N           4.1502027     0.1158312     1.4574194
C           3.6156153    -0.3698322     0.3540570
N           4.2116732     0.1651270    -0.7648580
H           4.0306028    -0.1141738    -1.7188570
C           5.2090580     1.0094924    -0.3328222
H           5.8559347     1.5349429    -1.0192852
16
252_C5H7N3O_0-2-11-10 (150,) energy =    -434.2229172
N           1.5420124    -0.9832363    -0.7291628
H           1.5046987    -0.0240552    -1.0511547
C           2.3939446    -1.2397494     0.3316037
O           2.2252112    -2.1614151     1.1126256
C           0.3147907    -1.7583953    -0.8592325
H          -0.4410790    -1.4731267    -0.1158418
H           0.5518101    -2.8128827    -0.7103870
H          -0.0943072    -1.6164486    -1.8631078
C           5.2085225     0.8905239     1.0433854
H           5.8908666     1.3581763     1.7402925
N           4.2098818     0.0571140     1.4765776
C           3.5703566    -0.3253749     0.3875569
N           4.1194897     0.2488922    -0.7376952
H           3.8803097     0.0160267    -1.6913927
C           5.1837870     1.0164635    -0.3270726
H           5.8065934     1.5571705    -1.0240024
16
252_C5H7N3O_0-2-11-10 (165,) energy =    -434.2223623
N           1.5568580    -1.0139173    -0.7788736
H           1.5078983    -0.0775204    -1.1627329
C           2.3331686    -1.1581110     0.3632878
O           2.1026221    -1.9981374     1.2166257
C           0.3361309    -1.8038099    -0.8950276
H          -0.4470260    -1.4730199    -0.2003378
H           0.5708270    -2.8442282    -0.6655777
H          -0.0360920    -1.7344099    -1.9205708
C           5.2718516     0.8048549     1.0329064
H           6.0220664     1.1840894     1.7136411
N           4.2571368    -0.0036335     1.4705263
C           3.5252867    -0.2672550     0.4035970
N           4.0422554     0.3511226    -0.7151590
H           3.7558594     0.1782863    -1.6684494
C           5.1711673     1.0284904    -0.3221695
H           5.7789025     1.5864684    -1.0188947
16
252_C5H7N3O_0-2-11-10 (180,) energy =    -434.2204318
N           1.5831558    -1.0656500    -0.8041273
H           1.5521206    -0.1761091    -1.2882011
C           2.2926412    -1.0858266     0.3901389
O           2.0060733    -1.8355432     1.3081954
C           0.3581290    -1.8536794    -0.8929351
H          -0.4573081    -1.4379410    -0.2863801
H           0.5664579    -2.8611032    -0.5304239
H           0.0436524    -1.9029213    -1.9387838
C           5.3416853     0.7116806     1.0165558
H           6.1522027     0.9921685     1.6756458
N           4.3176617    -0.0861678     1.4477083
C           3.5021023    -0.2165955     0.4165132
N           3.9865760     0.4681473    -0.6794386
H           3.6459575     0.4003250    -1.6275521
C           5.1680355     1.0597370    -0.3043268
H           5.7549307     1.6548531    -0.9881972
