18
314_C7H9NO_0-4-12-11 (-165,) energy =    -402.1512260
C           1.5074369    -0.9495647    -1.4008601
H           1.2515529     0.0267638    -1.8296265
H           0.6007103    -1.5630498    -1.4260860
H           2.2491093    -1.4203505    -2.0567454
C           2.0250364    -0.8314245     0.0339900
H           2.1755509    -1.8296778     0.4632031
H           1.2564066    -0.3735283     0.6741228
C           5.7353018     1.2823656     0.6829660
H           6.6688536     1.7660814     0.9488667
N           5.1822344     0.4712461     1.6338519
H           5.6363767     0.3447870     2.5309984
C           3.9788092    -0.2424292     1.4997103
C           3.3146608    -0.0658239     0.2075190
C           3.8842791     0.7420588    -0.7402783
H           3.3929562     0.8630363    -1.7021050
C           5.1104823     1.4393889    -0.5163247
H           5.5395712     2.0774436    -1.2795796
O           3.5736568    -0.9403924     2.4285150
18
314_C7H9NO_0-4-12-11 (-150,) energy =    -402.1504350
C           1.7000770    -1.7926100    -0.4466479
H           2.3926820    -2.4275947    -1.0117553
H           0.6873361    -2.0447681    -0.7791269
H           1.7855625    -2.0630747     0.6118994
C           1.9703720    -0.2996622    -0.6602602
H           1.1995371     0.2966524    -0.1605393
H           1.8691069    -0.0545401    -1.7284219
C           5.7362200     1.2498457     0.7919814
H           6.6294512     1.7342454     1.1711646
N           4.6069613     2.0171565     0.7392143
H           4.6259925     2.9827208     1.0463986
C           3.3482609     1.5931429     0.2777463
C           3.3091961     0.1977078    -0.1642640
C           4.4466304    -0.5628434    -0.0966742
H           4.4115584    -1.6015102    -0.4158960
C           5.6896660    -0.0468355     0.3796628
H           6.5767124    -0.6676681     0.4176707
O           2.4036009     2.3817236     0.2748822
18
314_C7H9NO_0-4-12-11 (-135,) energy =    -402.1499430
C           1.6619870    -1.7415724    -0.3348427
H           2.3854551    -2.4775888    -0.7046484
H           0.6807865    -2.0198411    -0.7353178
H           1.6209476    -1.8332210     0.7561944
C           2.0232278    -0.3101351    -0.7555928
H           1.2462337     0.3855469    -0.4259208
H           2.0354146    -0.2477340    -1.8539177
C           5.7451058     1.2345789     0.8161119
H           6.6258642     1.7113694     1.2323323
N           4.5948309     1.9708154     0.8317074
H           4.5900533     2.9100835     1.2122461
C           3.3451863     1.5541134     0.3377647
C           3.3415276     0.1970784    -0.2125297
C           4.5024240    -0.5309992    -0.2177073
H           4.4942232    -1.5378397    -0.6296779
C           5.7333052    -0.0239770     0.2961177
H           6.6377530    -0.6200596     0.2775262
O           2.3838763     2.3198500     0.3992643
18
314_C7H9NO_0-4-12-11 (-120,) energy =    -402.1501099
C           1.5786641    -1.6614840    -0.2284124
H           2.3180450    -2.4549503    -0.3885885
H           0.6371032    -1.9869302    -0.6851901
H           1.4170814    -1.5695188     0.8512774
C           2.0379637    -0.3240575    -0.8323682
H           1.2728716     0.4398232    -0.6704924
H           2.1450828    -0.4404885    -1.9199814
C           5.7157822     1.2204461     0.8378530
H           6.5853947     1.6882128     1.2865819
N           4.5433602     1.9158909     0.9200934
H           4.5136025     2.8198934     1.3772278
C           3.3008606     1.5002942     0.4055037
C           3.3364472     0.1944077    -0.2546354
C           4.5210311    -0.4902174    -0.3334771
H           4.5381369    -1.4559408    -0.8356302
C           5.7396637     0.0097151     0.2142158
H           6.6626981    -0.5524472     0.1393288
O           2.3170038     2.2269607     0.5396479
18
314_C7H9NO_0-4-12-11 (-105,) energy =    -402.1507230
C           1.5261369    -1.5727937    -0.1392397
H           2.2369133    -2.4073167    -0.1266736
H           0.5995637    -1.9242612    -0.6075359
H           1.3006527    -1.3079620     0.8995454
C           2.0958927    -0.3631947    -0.9018294
H           1.3593696     0.4448667    -0.9101565
H           2.2791878    -0.6522833    -1.9451279
C           5.7160278     1.2118831     0.8538711
H           6.5684761     1.6815839     1.3325283
N           4.5166193     1.8504722     0.9923873
H           4.4527431     2.7161729     1.5154687
C           3.2878367     1.4186097     0.4584110
C           3.3746025     0.1704986    -0.2998968
C           4.5858465    -0.4552247    -0.4381124
H           4.6375871    -1.3769722    -1.0155086
C           5.7861836     0.0525195     0.1420517
H           6.7315908    -0.4625559     0.0215642
O           2.2729488     2.0861443     0.6542169
18
314_C7H9NO_0-4-12-11 (-90,) energy =    -402.1516535
C           1.4506129    -1.4696101    -0.0709676
H           2.1099461    -2.3241629     0.1196704
H           0.5385163    -1.8424236    -0.5510166
H           1.1713087    -1.0323771     0.8933445
C           2.1434481    -0.4200857    -0.9595697
H           1.4530654     0.4100352    -1.1386122
H           2.3836440    -0.8698446    -1.9312682
C           5.7005994     1.2142526     0.8594818
H           6.5335098     1.6951222     1.3608302
N           4.4715315     1.7795891     1.0511542
H           4.3691547     2.6017759     1.6348650
C           3.2609832     1.3160706     0.5039517
C           3.4037758     0.1307993    -0.3406467
C           4.6430902    -0.4201279    -0.5335303
H           4.7350963    -1.2955012    -1.1743465
C           5.8220208     0.1101011     0.0711125
H           6.7915491    -0.3450980    -0.0915318
O           2.2111462     1.9065202     0.7560902
18
314_C7H9NO_0-4-12-11 (-75,) energy =    -402.1523788
C           1.3877069    -1.3579540    -0.0130581
H           1.9752555    -2.2109917     0.3453890
H           0.4884563    -1.7461397    -0.5048467
H           1.0756154    -0.7638572     0.8505143
C           2.2055191    -0.4912897    -0.9883215
H           1.5732826     0.3344085    -1.3358636
H           2.4849116    -1.0848936    -1.8674990
C           5.7151372     1.2114850     0.8586659
H           6.5334180     1.7030344     1.3734994
N           4.4622860     1.6935956     1.1145986
H           4.3308891     2.4717349     1.7506150
C           3.2662355     1.2044054     0.5591515
C           3.4503035     0.0856556    -0.3641519
C           4.7116985    -0.3855799    -0.6160275
H           4.8341191    -1.2140620    -1.3113994
C           5.8753696     0.1694736    -0.0036038
H           6.8633626    -0.2208328    -0.2161480
O           2.1929206     1.7236867     0.8651318
18
314_C7H9NO_0-4-12-11 (-60,) energy =    -402.1517731
C           1.3082096    -1.2582806     0.0051204
H           1.8213296    -2.0612545     0.5475825
H           0.4525347    -1.6988342    -0.5191213
H           0.9374566    -0.5306078     0.7294527
C           2.2532668    -0.5768457    -1.0008619
H           1.6849179     0.2054883    -1.5233270
H           2.5767548    -1.2967517    -1.7624208
C           5.7223544     1.2172770     0.8501748
H           6.5307459     1.7178337     1.3719053
N           4.4556738     1.6147093     1.1719280
H           4.3047601     2.3472187     1.8560423
C           3.2666644     1.1079000     0.6153888
C           3.4744833     0.0532533    -0.3765881
C           4.7510449    -0.3384739    -0.6864998
H           4.8919312    -1.1249121    -1.4256729
C           5.9059380     0.2406996    -0.0810212
H           6.9040644    -0.0858782    -0.3468191
O           2.1848909     1.5736466     0.9744841
18
314_C7H9NO_0-4-12-11 (-45,) energy =    -402.1496604
C           1.2160380    -1.1664874    -0.0016391
H           1.6325128    -1.8891089     0.7107496
H           0.4183297    -1.6695787    -0.5600209
H           0.7896732    -0.3376983     0.5631956
C           2.2939922    -0.6641252    -0.9765605
H           1.8109042     0.0384958    -1.6732410
H           2.6630591    -1.4946379    -1.5906568
C           5.7372840     1.2374613     0.8392126
H           6.5432637     1.7499181     1.3531755
N           4.4692536     1.5518560     1.2340765
H           4.3128072     2.2377951     1.9637225
C           3.2774571     1.0227064     0.7001133
C           3.4875084     0.0276710    -0.3523757
C           4.7695473    -0.2838957    -0.7296944
H           4.9141462    -1.0327028    -1.5063957
C           5.9234842     0.3220241    -0.1515181
H           6.9217707     0.0570055    -0.4780342
O           2.2003950     1.4358059     1.1308477
18
314_C7H9NO_0-4-12-11 (-30,) energy =    -402.1470266
C           1.1439294    -1.0805613    -0.0465171
H           1.4436229    -1.6723596     0.8262483
H           0.4168032    -1.6703010    -0.6169497
H           0.6651818    -0.1733495     0.3192034
C           2.3471255    -0.7559639    -0.9442318
H           1.9760888    -0.1588579    -1.7926690
H           2.7391493    -1.6804009    -1.3864885
C           5.7665124     1.2632097     0.8088683
H           6.5711838     1.7950685     1.3049158
N           4.5073689     1.4889219     1.2817388
H           4.3540648     2.1346717     2.0478486
C           3.3130121     0.9252516     0.7852533
C           3.5162164    -0.0120712    -0.3205954
C           4.7932712    -0.2384030    -0.7720442
H           4.9347969    -0.9487694    -1.5849564
C           5.9451966     0.4025624    -0.2312036
H           6.9359649     0.2034058    -0.6211947
O           2.2472862     1.2692129     1.2965973
18
314_C7H9NO_0-4-12-11 (-15,) energy =    -402.1450032
C           1.0864543    -0.9780854    -0.0951857
H           1.2509931    -1.4439704     0.8812124
H           0.3979602    -1.6146475    -0.6640011
H           0.6119320    -0.0133709     0.0835204
C           2.3943913    -0.8337580    -0.8843749
H           2.1544599    -0.3672251    -1.8524784
H           2.7753112    -1.8330653    -1.1339519
C           5.7844234     1.3080860     0.7910717
H           6.5850863     1.8674397     1.2628234
N           4.5424253     1.4488690     1.3350141
H           4.3973125     2.0533515     2.1356189
C           3.3536672     0.8304206     0.8890700
C           3.5448934    -0.0498556    -0.2644847
C           4.8062706    -0.1868993    -0.7910533
H           4.9395318    -0.8544001    -1.6413237
C           5.9517629     0.4925748    -0.2868078
H           6.9286167     0.3606240    -0.7359359
O           2.3071914     1.0847019     1.4848554
18
314_C7H9NO_0-4-12-11 (0,) energy =    -402.1442581
C           1.0523574    -0.8778780    -0.1538859
H           1.0827532    -1.2333823     0.8780557
H           0.3724286    -1.5224713    -0.7242948
H           0.6373569     0.1318794    -0.1339125
C           2.4360229    -0.9159601    -0.8142837
H           2.3286603    -0.6053004    -1.8636399
H           2.7709290    -1.9624017    -0.8587741
C           5.7863709     1.3531665     0.7757484
H           6.5782277     1.9433003     1.2242635
N           4.5683675     1.4075131     1.3851138
H           4.4325973     1.9762938     2.2131055
C           3.3955809     0.7292402     0.9852162
C           3.5726681    -0.0975349    -0.2092671
C           4.8080857    -0.1387832    -0.8086501
H           4.9284585    -0.7574465    -1.6971257
C           5.9418195     0.5810205    -0.3354684
H           6.8989059     0.5200036    -0.8390543
O           2.3750572     0.8915377     1.6534716
18
314_C7H9NO_0-4-12-11 (15,) energy =    -402.1450032
C           1.0254695    -0.7910016    -0.2337284
H           0.9397539    -1.0194183     0.8284691
H           0.3405140    -1.4384344    -0.7944891
H           0.7005619     0.2450840    -0.3695076
C           2.4525606    -1.0123376    -0.7521606
H           2.4637224    -0.8770729    -1.8419232
H           2.7096163    -2.0708162    -0.5909504
C           5.7624212     1.3756054     0.7410572
H           6.5430565     1.9964699     1.1672316
N           4.5766330     1.3438855     1.4127342
H           4.4547213     1.8771645     2.2660670
C           3.4269342     0.6055814     1.0555298
C           3.5833415    -0.1678987    -0.1771104
C           4.7824269    -0.1137884    -0.8452339
H           4.8836754    -0.6830500    -1.7682542
C           5.9014355     0.6469365    -0.4011360
H           6.8319325     0.6572371    -0.9556066
O           2.4411655     0.6735723     1.7892632
18
314_C7H9NO_0-4-12-11 (30,) energy =    -402.1470266
C           1.0209795    -0.7033992    -0.3258434
H           0.8543802    -0.7539989     0.7491767
H           0.3212717    -1.3773111    -0.8339282
H           0.7945043     0.3194343    -0.6487708
C           2.4594450    -1.1008001    -0.6889229
H           2.5660037    -1.1492510    -1.7798643
H           2.6187186    -2.1310762    -0.3322527
C           5.7239115     1.3938341     0.7120703
H           6.4901020     2.0437972     1.1206452
N           4.5773778     1.2740142     1.4408357
H           4.4746346     1.7645591     2.3218743
C           3.4591423     0.4767773     1.1173039
C           3.5895879    -0.2373680    -0.1538169
C           4.7452378    -0.0911767    -0.8811409
H           4.8258983    -0.6147816    -1.8323551
C           5.8440141     0.7128856    -0.4610788
H           6.7429076     0.7956401    -1.0598438
O           2.5165668     0.4428724     1.9084762
18
314_C7H9NO_0-4-12-11 (45,) energy =    -402.1496604
C           1.0368924    -0.6168937    -0.4086583
H           0.8269721    -0.4522699     0.6480105
H           0.3062844    -1.3259072    -0.8145417
H           0.9074546     0.3356995    -0.9368089
C           2.4587406    -1.1698387    -0.6021117
H           2.6324087    -1.4007678    -1.6602171
H           2.5176553    -2.1304351    -0.0671369
C           5.6794432     1.4148448     0.7077767
H           6.4339067     2.0854008     1.1046555
N           4.5828506     1.2031764     1.4922154
H           4.5038551     1.6514727     2.3978431
C           3.4913545     0.3662273     1.1861973
C           3.5894876    -0.2854085    -0.1205891
C           4.6942865    -0.0531074    -0.9006677
H           4.7519164    -0.5350654    -1.8749783
C           5.7701272     0.7924778    -0.4999811
H           6.6311153     0.9487640    -1.1384933
O           2.5896344     0.2412846     2.0153754
18
314_C7H9NO_0-4-12-11 (60,) energy =    -402.1517731
C           1.0791022    -0.5553725    -0.5154336
H           0.8312989    -0.2049627     0.4882740
H           0.3126448    -1.2697159    -0.8369194
H           1.0518181     0.2999594    -1.2009897
C           2.4647128    -1.2258550    -0.5202996
H           2.6852365    -1.6298267    -1.5158182
H           2.4298939    -2.0807332     0.1696334
C           5.6552809     1.4229905     0.6977614
H           6.4048930     2.1039339     1.0859033
N           4.6139005     1.1290743     1.5314864
H           4.5713524     1.5290700     2.4618359
C           3.5402195     0.2683504     1.2370405
C           3.5952746    -0.3175530    -0.1020536
C           4.6440608    -0.0103361    -0.9295617
H           4.6726849    -0.4523075    -1.9238215
C           5.7022347     0.8656486    -0.5438897
H           6.5211231     1.0890742    -1.2169874
O           2.6760274     0.0664344     2.0905656
18
314_C7H9NO_0-4-12-11 (75,) energy =    -402.1523788
C           1.1144340    -0.5195214    -0.6339712
H           0.8245292     0.0065201     0.2800008
H           0.3211566    -1.2329128    -0.8849285
H           1.1859794     0.2108635    -1.4480904
C           2.4531378    -1.2512996    -0.4255599
H           2.7192871    -1.8042930    -1.3348133
H           2.3286904    -1.9838182     0.3807994
C           5.6442321     1.4289575     0.6975439
H           6.4009279     2.1095030     1.0724131
N           4.6674614     1.0638930     1.5808417
H           4.6739300     1.4189968     2.5301268
C           3.5942649     0.1976947     1.3045898
C           3.5833345    -0.3227101    -0.0618035
C           4.5706527     0.0470810    -0.9364913
H           4.5538430    -0.3541793    -1.9482318
C           5.6249511     0.9377756    -0.5726293
H           6.3943694     1.2181830    -1.2818623
O           2.7740276    -0.0596108     2.1856611
18
314_C7H9NO_0-4-12-11 (90,) energy =    -402.1516535
C           1.1421722    -0.5232694    -0.7717865
H           0.7896708     0.1386119     0.0261717
H           0.3403283    -1.2344218    -1.0012768
H           1.3246387     0.0854966    -1.6647778
C           2.4186949    -1.2648799    -0.3340202
H           2.7343284    -1.9461633    -1.1342723
H           2.1961580    -1.8703958     0.5500685
C           5.6324127     1.4233837     0.7045325
H           6.4015871     2.0998512     1.0610263
N           4.7279023     0.9927921     1.6337274
H           4.7922751     1.3033123     2.5963403
C           3.6497762     0.1229031     1.3874660
C           3.5537054    -0.3294234     0.0001033
C           4.4731762     0.1011121    -0.9195908
H           4.3954695    -0.2535061    -1.9460392
C           5.5332665     0.9960358    -0.5850271
H           6.2464713     1.3273838    -1.3301390
O           2.8937441    -0.1882063     2.3072422
18
314_C7H9NO_0-4-12-11 (105,) energy =    -402.1507230
C           1.1872719    -0.5330893    -0.9091996
H           0.7920459     0.2526464    -0.2561534
H           0.3777904    -1.2438803    -1.1113988
H           1.4744114    -0.0676373    -1.8593022
C           2.3828129    -1.2438036    -0.2497595
H           2.7330268    -2.0451338    -0.9137333
H           2.0615716    -1.7100784     0.6855964
C           5.6465639     1.4249334     0.6960225
H           6.4349873     2.0911169     1.0291707
N           4.8122653     0.9431496     1.6642134
H           4.9450220     1.2054792     2.6341055
C           3.7268576     0.0713086     1.4560645
C           3.5320292    -0.3127257     0.0578872
C           4.3816243     0.1713032    -0.9021384
H           4.2320554    -0.1327244    -1.9369709
C           5.4586563     1.0574414    -0.6021967
H           6.1149540     1.4295245    -1.3796554
O           3.0480842    -0.2925529     2.4156536
18
314_C7H9NO_0-4-12-11 (120,) energy =    -402.1501099
C           1.2241324    -0.5737022    -1.0339657
H           0.8045799     0.3099101    -0.5405069
H           0.4084772    -1.2855194    -1.2046140
H           1.6027631    -0.2601822    -2.0139009
C           2.3274790    -1.2126135    -0.1744033
H           2.6922335    -2.1196636    -0.6765462
H           1.9142874    -1.5285641     0.7871222
C           5.6543990     1.4087162     0.6983570
H           6.4657515     2.0552756     1.0146753
N           4.8824364     0.8753196     1.6905980
H           5.0792574     1.0840621     2.6625887
C           3.7858253     0.0120320     1.5075489
C           3.4949910    -0.2922285     0.1056821
C           4.2808250     0.2467423    -0.8792758
H           4.0617953     0.0056042    -1.9180012
C           5.3801983     1.1126532    -0.6026134
H           5.9851441     1.5265715    -1.4003223
O           3.1753814    -0.4071460     2.4902296
18
314_C7H9NO_0-4-12-11 (135,) energy =    -402.1499430
C           1.2962498    -0.6194360    -1.1658329
H           0.9061264     0.3601489    -0.8680694
H           0.4482055    -1.3063204    -1.2637046
H           1.7447865    -0.5118232    -2.1603765
C           2.2977206    -1.1526043    -0.1317506
H           2.6532989    -2.1439723    -0.4497343
H           1.7983471    -1.3088048     0.8287724
C           5.6918642     1.3978565     0.6951189
H           6.5259694     2.0178247     1.0052995
N           4.9747168     0.8050135     1.6949472
H           5.2295481     0.9476728     2.6653938
C           3.8654200    -0.0423774     1.5199583
C           3.4881858    -0.2530966     0.1207897
C           4.2147661     0.3515523    -0.8713216
H           3.9311730     0.1897517    -1.9090645
C           5.3374877     1.1904931    -0.6033086
H           5.8964476     1.6545620    -1.4069814
O           3.3112116    -0.5258551     2.5065453
18
314_C7H9NO_0-4-12-11 (150,) energy =    -402.1504350
C           1.3419584    -0.6938576    -1.2603220
H           1.0011567     0.3438150    -1.1704835
H           0.4568735    -1.3377515    -1.3026959
H           1.8603600    -0.7943149    -2.2212703
C           2.2279674    -1.0902764    -0.0748167
H           2.5478364    -2.1374801    -0.1859783
H           1.6452178    -1.0710906     0.8522935
C           5.6971711     1.3695696     0.7032409
H           6.5559488     1.9597094     1.0041076
N           5.0305243     0.7173241     1.7017064
H           5.3378637     0.7982111     2.6640154
C           3.9009814    -0.1030384     1.5337634
C           3.4461736    -0.2227598     0.1470568
C           4.1182854     0.4445630    -0.8427456
H           3.7716792     0.3618439    -1.8698691
C           5.2660755     1.2528593    -0.5828738
H           5.7836082     1.7659045    -1.3845430
O           3.3890590    -0.6423401     2.5142424
18
314_C7H9NO_0-4-12-11 (165,) energy =    -402.1512261
C           1.3879556    -0.7753619    -1.3372536
H           1.0882918     0.2744394    -1.4373725
H           0.4797065    -1.3866263    -1.3615975
H           1.9822804    -1.0406242    -2.2198332
C           2.1518934    -1.0167864    -0.0338768
H           2.4251634    -2.0790907     0.0501514
H           1.4950746    -0.8371243     0.8261760
C           5.6982474     1.3360916     0.7027429
H           6.5814895     1.8931848     0.9955468
N           5.0732841     0.6298071     1.6919661
H           5.4336310     0.6400989     2.6391479
C           3.9227663    -0.1610655     1.5294967
C           3.3947026    -0.1828831     0.1646870
C           4.0247941     0.5368250    -0.8153461
H           3.6240185     0.5258061    -1.8254964
C           5.1986892     1.3104487    -0.5634093
H           5.6830825     1.8678731    -1.3561446
O           3.4485990    -0.7584181     2.4950605
18
314_C7H9NO_0-4-12-11 (180,) energy =    -402.1515999
C           1.4530291    -0.8582136    -1.3708675
H           1.1663778     0.1655855    -1.6394549
H           0.5460490    -1.4712429    -1.3929953
H           2.1253185    -1.2345488    -2.1511574
C           2.0992021    -0.9216141     0.0134174
H           2.3200912    -1.9646631     0.2792276
H           1.3821614    -0.5963693     0.7798560
C           5.7280161     1.3178123     0.6898142
H           6.6375746     1.8400758     0.9657777
N           5.1444758     0.5597659     1.6662240
H           5.5561234     0.5048774     2.5906972
C           3.9666836    -0.1929953     1.5208416
C           3.3644928    -0.1187320     0.1892776
C           3.9585685     0.6434642    -0.7808079
H           3.5086712     0.6965744    -1.7685706
C           5.1594273     1.3804970    -0.5454878
H           5.6121964     1.9775649    -1.3279690
O           3.5293826    -0.8394895     2.4719975
