26
231_C9H13N3O_0-5-7-18 (-165,) energy =    -590.2368673
C           0.5659367    -1.5267652    -0.7449486
C          -0.4736807    -0.7783657    -1.5702406
H          -0.0675900     0.0894933    -2.0999107
H          -1.2784912    -0.4363073    -0.9089529
H          -0.9104022    -1.4715864    -2.2926619
N           1.6886549    -0.7937474    -0.4383048
H           1.6034822     0.2028633    -0.5940768
C           2.6664917    -1.1196783     0.6051521
C           3.2627926    -2.5104113     0.7004580
H           4.3248090    -2.5886628     0.9192496
H           2.8655478    -3.2604253     0.0257664
C           2.3265786    -2.0085677     1.7760861
H           1.3384438    -2.4496671     1.7968437
H           2.7324319    -1.7046487     2.7351076
O           0.4050283    -2.6934071    -0.4090336
C           4.4406928     1.7735547     1.8129065
H           4.6127163     2.5352498     2.5616485
N           3.4759597     0.8109233     1.9799493
C           3.5329731     0.0562264     0.8962330
N           4.4975278     0.5086121     0.0204476
C           4.9131985    -0.1095185    -1.2308029
H           4.0799065    -0.6734173    -1.6520301
H           5.7595878    -0.7876946    -1.0746502
H           5.2086117     0.6683704    -1.9400637
C           5.0839462     1.6074362     0.6115832
H           5.8821706     2.1521817     0.1282589
26
231_C9H13N3O_0-5-7-18 (-150,) energy =    -590.2346268
C           0.4352090    -1.5066931    -0.6152421
C          -0.5356664    -0.7360025    -1.5026941
H          -0.0428045    -0.0348720    -2.1842475
H          -1.2298994    -0.1722333    -0.8684674
H          -1.1217116    -1.4522713    -2.0826921
N           1.6684241    -0.9143421    -0.4731252
H           1.7235470     0.0345373    -0.8189806
C           2.6620485    -1.1946083     0.5694672
C           3.3092331    -2.5640874     0.6583423
H           4.3747868    -2.6170453     0.8673480
H           2.9325428    -3.3216467    -0.0224666
C           2.3658182    -2.0976941     1.7419134
H           1.3924061    -2.5663912     1.7751766
H           2.7758238    -1.7759781     2.6934568
O           0.1279141    -2.5759683    -0.1044809
C           4.2741511     1.7985512     1.7605120
H           4.3805051     2.5906786     2.4896694
N           3.3392467     0.8054475     1.9154292
C           3.4778612     0.0163799     0.8645720
N           4.4693639     0.4755857     0.0210387
C           4.9661494    -0.1582006    -1.1920467
H           4.2158143    -0.8518615    -1.5729752
H           5.8918420    -0.7110813    -0.9968634
H           5.1626830     0.6035594    -1.9519321
C           4.9834880     1.6168216     0.5993542
H           5.7867462     2.1735044     0.1384566
26
231_C9H13N3O_0-5-7-18 (-135,) energy =    -590.2333437
C           0.2852030    -1.2785861    -0.6212989
C          -0.4735251    -0.7433276    -1.8331110
H           0.1495438    -0.2128415    -2.5607602
H          -1.2553405    -0.0633785    -1.4795153
H          -0.9701056    -1.5803670    -2.3320016
N           1.6052673    -0.9022217    -0.5755468
H           1.9223576    -0.3234358    -1.3398545
C           2.6019840    -1.1500573     0.4539566
C           3.3001459    -2.5110892     0.5036736
H           4.3613584    -2.5342380     0.7381058
H           2.9722448    -3.2512031    -0.2214715
C           2.3243943    -2.1105202     1.5782085
H           1.3506671    -2.5799977     1.5824716
H           2.7127666    -1.8115626     2.5460689
O          -0.2759998    -1.9821318     0.2075078
C           4.2065017     1.8066108     1.7477889
H           4.3267834     2.5566125     2.5181746
N           3.2903756     0.7920783     1.8745307
C           3.4080771     0.0617164     0.7806560
N           4.3802082     0.5722579    -0.0577278
C           4.8131651     0.0536574    -1.3452630
H           4.4715300    -0.9772285    -1.4518273
H           5.9055105     0.0651573    -1.4031673
H           4.4146983     0.6529394    -2.1731191
C           4.8883635     1.6955697     0.5626535
H           5.6726195     2.2858557     0.1109646
26
231_C9H13N3O_0-5-7-18 (-120,) energy =    -590.2343742
C           0.2978329    -1.0050957    -0.6076356
C          -0.3649920    -0.8726106    -1.9763688
H           0.3356935    -0.7883942    -2.8136988
H          -1.0077645     0.0132038    -1.9662705
H          -1.0105725    -1.7409477    -2.1379376
N           1.6731650    -0.9109166    -0.6342351
H           2.0936331    -0.9005264    -1.5529807
C           2.5841491    -1.1253420     0.4724372
C           3.2237339    -2.5160542     0.5941539
H           4.2637307    -2.5651606     0.9051726
H           2.9286588    -3.2571061    -0.1446087
C           2.1914624    -2.0578015     1.5837575
H           1.1960361    -2.4782574     1.5329522
H           2.5176044    -1.7572097     2.5733210
O          -0.3674968    -1.1576927     0.4044762
C           4.4152920     1.6224345     1.9209931
H           4.6582092     2.2548336     2.7644090
N           3.4921299     0.6106630     2.0275524
C           3.4375132     0.0450500     0.8355333
N           4.3089001     0.6516174    -0.0437766
C           4.5455894     0.3121630    -1.4350640
H           4.5024272    -0.7732530    -1.5647257
H           5.5441944     0.6484722    -1.7236832
H           3.8130845     0.7870509    -2.0992732
C           4.9286316     1.6728085     0.6510761
H           5.6575240     2.3159397     0.1794349
26
231_C9H13N3O_0-5-7-18 (-105,) energy =    -590.2361131
C           0.3525617    -0.8232215    -0.7463856
C          -0.2658183    -0.9639172    -2.1339086
H           0.4469913    -1.2335529    -2.9202204
H          -0.7452482    -0.0171628    -2.3997065
H          -1.0517555    -1.7247813    -2.0930194
N           1.7052428    -1.0966017    -0.6898406
H           2.1175397    -1.4991739    -1.5202890
C           2.4677434    -1.2144163     0.5320245
C           2.9667133    -2.6217094     0.8828725
H           3.9541743    -2.6930007     1.3287319
H           2.7105473    -3.4237059     0.1939757
C           1.8658692    -1.9870987     1.6783540
H           0.8504759    -2.3378600     1.5404718
H           2.0992306    -1.6049029     2.6655474
O          -0.3091042    -0.4800323     0.2186730
C           4.5700181     1.2845212     2.0457191
H           4.9784987     1.7534494     2.9308409
N           3.6683202     0.2525332     2.1328821
C           3.3683093    -0.0759152     0.8883008
N           4.0553171     0.7079393    -0.0121747
C           4.0527213     0.6543674    -1.4657459
H           4.3075777    -0.3503686    -1.8199248
H           4.8118031     1.3456653    -1.8377214
H           3.0803111     0.9414133    -1.8739165
C           4.8213372     1.5871846     0.7348337
H           5.4452729     2.3302811     0.2600073
26
231_C9H13N3O_0-5-7-18 (-90,) energy =    -590.2371875
C           0.4405433    -0.7206605    -0.7497122
C          -0.2330678    -0.8555286    -2.1112548
H           0.4058657    -1.2880640    -2.8883440
H          -0.5676927     0.1339924    -2.4366187
H          -1.1257994    -1.4792773    -2.0010616
N           1.7290790    -1.2084252    -0.6926604
H           2.0925736    -1.6772543    -1.5103451
C           2.5040967    -1.2807113     0.5223719
C           3.0446167    -2.6655481     0.8835417
H           4.0317334    -2.7016103     1.3341103
H           2.8181598    -3.4828159     0.2019735
C           1.9227093    -2.0613503     1.6752237
H           0.9199348    -2.4473576     1.5322873
H           2.1396326    -1.6687867     2.6619457
O          -0.1250114    -0.2152752     0.2051252
C           4.4677779     1.3325479     2.0281563
H           4.8409575     1.8341221     2.9109640
N           3.6117678     0.2628142     2.1201132
C           3.3462722    -0.0989326     0.8771941
N           4.0119988     0.6992537    -0.0264202
C           4.0364516     0.6152038    -1.4782680
H           4.3273443    -0.3884701    -1.8057066
H           4.7795395     1.3227964    -1.8520707
H           3.0630636     0.8622774    -1.9097952
C           4.7261643     1.6244028     0.7159539
H           5.3232442     2.3872171     0.2378476
26
231_C9H13N3O_0-5-7-18 (-75,) energy =    -590.2374277
C           0.5309252    -0.6449081    -0.7430123
C          -0.1832952    -0.7624583    -2.0851105
H           0.3607451    -1.3484621    -2.8332051
H          -0.3598140     0.2426870    -2.4798043
H          -1.1629750    -1.2224624    -1.9217929
N           1.7225610    -1.3290749    -0.6547499
H           2.0389203    -1.8557279    -1.4562119
C           2.5219773    -1.3687968     0.5456153
C           3.1251834    -2.7286093     0.8899193
H           4.1207382    -2.7253544     1.3227454
H           2.9221627    -3.5545959     0.2113806
C           1.9895859    -2.1761041     1.7038094
H           1.0033286    -2.6072852     1.5702593
H           2.2034371    -1.7833778     2.6910116
O           0.0745588     0.0088336     0.1800678
C           4.3342153     1.3620083     2.0350568
H           4.6665826     1.9016305     2.9117353
N           3.5239075     0.2578689     2.1352679
C           3.3034195    -0.1454994     0.8966521
N           3.9566348     0.6567084    -0.0119471
C           4.0076873     0.5412364    -1.4605317
H           4.2565662    -0.4818972    -1.7577300
H           4.7921271     1.2039435    -1.8326892
H           3.0568102     0.8241379    -1.9214257
C           4.6099318     1.6319830     0.7214935
H           5.1836890     2.4086057     0.2370539
26
231_C9H13N3O_0-5-7-18 (-60,) energy =    -590.2369220
C           0.8411072    -0.1484277    -0.6938071
C          -0.0918491    -0.5731264    -1.8227497
H           0.0809367    -1.5910823    -2.1874384
H           0.0164247     0.1292238    -2.6538904
H          -1.1257885    -0.5008077    -1.4690947
N           1.6162979    -1.1561110    -0.1705759
H           1.5719763    -2.0713544    -0.5950353
C           2.5395157    -0.9646868     0.9236810
C           2.8049299    -2.2046995     1.7662293
H           3.8166484    -2.3378380     2.1364971
H           2.2992133    -3.1264425     1.4837265
C           1.9815976    -1.0788039     2.3258761
H           0.9081406    -1.2194221     2.3989159
H           2.4300451    -0.4302035     3.0693652
O           0.8835379     0.9998547    -0.2821113
C           5.1826717     1.4600836     1.1790741
H           5.7617185     2.1557516     1.7714688
N           4.1371609     0.7545891     1.7213296
C           3.6495009     0.0172199     0.7398626
N           4.3575242     0.2054831    -0.4252114
C           4.1608132    -0.4109634    -1.7271121
H           3.3061485     0.0265544    -2.2526418
H           4.0033313    -1.4873688    -1.6231806
H           5.0612306    -0.2521893    -2.3250140
C           5.3335865     1.1454429    -0.1446959
H           6.0160283     1.4909286    -0.9075374
26
231_C9H13N3O_0-5-7-18 (-45,) energy =    -590.2357819
C           0.9350696    -0.0505418    -0.7759268
C          -0.0804520    -0.4730996    -1.8327835
H          -0.0199742    -1.5299280    -2.1134185
H           0.0603143     0.1446367    -2.7235240
H          -1.0882063    -0.2732560    -1.4525648
N           1.5488953    -1.0896814    -0.1205390
H           1.3691996    -2.0291179    -0.4446116
C           2.5359864    -0.9358457     0.9280680
C           2.8527747    -2.2093096     1.6978753
H           3.8847045    -2.3544094     2.0020825
H           2.3345686    -3.1220786     1.4076156
C           2.0595230    -1.1120877     2.3543730
H           0.9927042    -1.2656252     2.4828848
H           2.5447986    -0.4968172     3.1030792
O           1.1632685     1.1236621    -0.5285641
C           5.1447031     1.5267009     1.1498494
H           5.7132702     2.2396684     1.7317314
N           4.1007365     0.8246343     1.6993309
C           3.6287580     0.0618371     0.7298673
N           4.3502717     0.2240053    -0.4298013
C           4.1464559    -0.4067011    -1.7227941
H           3.3333383     0.0760735    -2.2743858
H           3.9154655    -1.4669809    -1.5966478
H           5.0682905    -0.3210306    -2.3029972
C           5.3128229     1.1803615    -0.1643811
H           5.9992801     1.5141455    -0.9288988
26
231_C9H13N3O_0-5-7-18 (-30,) energy =    -590.2342948
C           0.9879784    -0.0029188    -0.8491024
C          -0.1518787    -0.4156729    -1.7760614
H          -0.3044028    -1.4977609    -1.8473849
H           0.0446794    -0.0147380    -2.7739238
H          -1.0791899     0.0434721    -1.4168264
N           1.4721212    -1.0143629    -0.0599139
H           1.0752104    -1.9338126    -0.1899053
C           2.5078823    -0.9116212     0.9537443
C           2.8807452    -2.2266591     1.6226291
H           3.9260552    -2.3772338     1.8748092
H           2.3660559    -3.1294888     1.2961036
C           2.0968458    -1.1880714     2.3833173
H           1.0401332    -1.3743514     2.5511737
H           2.5996666    -0.6117313     3.1513697
O           1.4132943     1.1432312    -0.8264653
C           5.0282937     1.6335720     1.2155426
H           5.5452966     2.3864231     1.7953015
N           3.9686607     0.9324062     1.7351072
C           3.5774128     0.1124403     0.7761735
N           4.3689107     0.2326450    -0.3404365
C           4.2263053    -0.4449868    -1.6172343
H           3.5041478     0.0754345    -2.2539773
H           3.8907494    -1.4719770    -1.4576612
H           5.1976969    -0.4702567    -2.1173746
C           5.2869178     1.2266536    -0.0673327
H           6.0137780     1.5395982    -0.8028524
26
231_C9H13N3O_0-5-7-18 (-15,) energy =    -590.2332606
C           1.0125926    -0.0831225    -1.0008688
C          -0.2860781    -0.4267499    -1.7255728
H          -0.6086730    -1.4660637    -1.6029476
H          -0.1574397    -0.2147801    -2.7901067
H          -1.0795967     0.2308384    -1.3541076
N           1.4192656    -1.0298219    -0.0975494
H           0.8206432    -1.8366732     0.0107311
C           2.5128242    -0.9590524     0.8620294
C           2.9694725    -2.2996669     1.4231805
H           4.0289172    -2.4273209     1.6254422
H           2.4738116    -3.1971524     1.0568884
C           2.1793501    -1.3434379     2.2836464
H           1.1413551    -1.5883526     2.4936950
H           2.6889340    -0.7946111     3.0674287
O           1.6144563     0.9565574    -1.2337216
C           4.8693022     1.7349387     1.1403518
H           5.3014277     2.5527081     1.7014171
N           3.8066014     1.0153469     1.6270024
C           3.5379202     0.1101493     0.7025441
N           4.4141723     0.1909513    -0.3511748
C           4.3759129    -0.5647608    -1.5908167
H           3.7078102    -0.0832055    -2.3105718
H           4.0176942    -1.5772734    -1.3907595
H           5.3851722    -0.6268893    -2.0059741
C           5.2544881     1.2500244    -0.0835965
H           6.0272117     1.5465811    -0.7780232
26
231_C9H13N3O_0-5-7-18 (0,) energy =    -590.2333499
C           1.0439208    -0.1467219    -1.1494337
C          -0.3814334    -0.2880479    -1.6753030
H          -0.8738429    -1.2227662    -1.3870782
H          -0.3587304    -0.2156173    -2.7653415
H          -0.9796987     0.5503739    -1.3012747
N           1.3628289    -1.0258877    -0.1471750
H           0.6051215    -1.6086491     0.1822815
C           2.5124866    -0.9966477     0.7521650
C           3.0295401    -2.3564335     1.2095019
H           4.0979230    -2.4686670     1.3716555
H           2.5392750    -3.2380997     0.8030339
C           2.2468658    -1.4783357     2.1558172
H           1.2278543    -1.7722599     2.3985883
H           2.7672300    -0.9612703     2.9541383
O           1.8117215     0.6858133    -1.6138515
C           4.7030527     1.8323028     1.0432232
H           5.0386686     2.7126767     1.5749592
N           3.6324326     1.0951876     1.4825196
C           3.5048053     0.1056977     0.6145801
N           4.4779085     0.1534385    -0.3523661
C           4.5813722    -0.6807492    -1.5373010
H           3.9512344    -0.2796127    -2.3354632
H           4.2513585    -1.6945877    -1.2989777
H           5.6246372    -0.7179998    -1.8615497
C           5.2345269     1.2740876    -0.0925716
H           6.0619505     1.5558382    -0.7275746
26
231_C9H13N3O_0-5-7-18 (15,) energy =    -590.2348773
C           1.0395390    -0.2878208    -1.1518064
C          -0.4349722    -0.1764597    -1.5226086
H          -1.0332083    -1.0294817    -1.1848909
H          -0.5154651    -0.0853276    -2.6075939
H          -0.8504898     0.7349013    -1.0763448
N           1.2863739    -1.0731212    -0.0519170
H           0.4576780    -1.3491049     0.4593716
C           2.4966857    -1.0615450     0.7687941
C           3.0829037    -2.4238381     1.1252045
H           4.1598953    -2.5066927     1.2425013
H           2.6018713    -3.2940355     0.6872195
C           2.3148276    -1.6312713     2.1519256
H           1.3218627    -1.9822634     2.4265010
H           2.8519671    -1.1395545     2.9552991
O           1.9089325     0.2760286    -1.8024883
C           4.4702193     1.9266565     1.0265868
H           4.6972246     2.8645994     1.5158865
N           3.4209670     1.1424826     1.4319310
C           3.4392147     0.0854750     0.6350362
N           4.4839822     0.1431530    -0.2550896
C           4.7523359    -0.7478091    -1.3732871
H           4.1235171    -0.4763986    -2.2242635
H           4.5315785    -1.7777583    -1.0861858
H           5.8099173    -0.6751368    -1.6392674
C           5.1366137     1.3315663    -0.0158162
H           5.9964612     1.6287629    -0.5984890
26
231_C9H13N3O_0-5-7-18 (30,) energy =    -590.2376110
C           1.0475267    -0.3577450    -1.1429467
C          -0.4002163     0.0087395    -1.4386783
H          -1.1172532    -0.6774311    -0.9756360
H          -0.5467363     0.0130601    -2.5203257
H          -0.6011161     1.0199898    -1.0645498
N           1.2400286    -1.0165358     0.0502357
H           0.4380623    -0.9813390     0.6691184
C           2.5123042    -1.0494038     0.7704317
C           3.1207468    -2.4264533     0.9978224
H           4.2025100    -2.5113314     1.0422124
H           2.6139081    -3.2645956     0.5296949
C           2.4206970    -1.7112344     2.1221347
H           1.4471071    -2.0836920     2.4332824
H           3.0104885    -1.2734332     2.9199744
O           1.9535069    -0.0975656    -1.9234651
C           4.3545240     2.0266194     0.9798653
H           4.5144822     2.9972814     1.4304666
N           3.3301696     1.2088795     1.3799943
C           3.4289002     0.1195814     0.6314967
N           4.4931303     0.1996745    -0.2341461
C           4.8974888    -0.7601647    -1.2525784
H           4.0195553    -1.0613352    -1.8245930
H           5.3800669    -1.6351835    -0.8049353
H           5.6095584    -0.2730014    -1.9219505
C           5.0848559     1.4231788    -0.0140303
H           5.9501320     1.7383446    -0.5787408
26
231_C9H13N3O_0-5-7-18 (45,) energy =    -590.2407768
C           0.9938115    -0.4761000    -1.1434292
C          -0.4076398     0.0218286    -1.4641422
H          -1.1826461    -0.4794732    -0.8750604
H          -0.6008033    -0.1319228    -2.5274976
H          -0.4635680     1.0981657    -1.2610607
N           1.1571400    -0.9598684     0.1347965
H           0.4114399    -0.7122878     0.7757063
C           2.4599886    -1.0702377     0.7788188
C           3.0356853    -2.4715602     0.9002256
H           4.1149988    -2.5872126     0.8796709
H           2.4814283    -3.2675508     0.4133600
C           2.4169657    -1.8035328     2.0973784
H           1.4478959    -2.1623466     2.4353228
H           3.0615911    -1.4286633     2.8849141
O           1.8948841    -0.4583099    -1.9717530
C           4.2909764     2.0112434     1.0016722
H           4.4396514     2.9836854     1.4524390
N           3.2760244     1.1820040     1.4019789
C           3.3853525     0.0942137     0.6518626
N           4.4433628     0.1907908    -0.2205707
C           4.8819413    -0.7723314    -1.2227101
H           4.0057993    -1.2247107    -1.6854118
H           5.5263190    -1.5403663    -0.7802241
H           5.4483442    -0.2396730    -1.9899787
C           5.0264697     1.4180387     0.0055080
H           5.8887043     1.7426224    -0.5586009
26
231_C9H13N3O_0-5-7-18 (60,) energy =    -590.2432773
C           1.0744530    -0.5411880    -1.1391181
C          -0.2969237     0.0028569    -1.5107109
H          -1.0801159    -0.2966734    -0.8068372
H          -0.5538995    -0.3455034    -2.5129846
H          -0.2556204     1.0985589    -1.5339690
N           1.2517883    -0.7980818     0.1997250
H           0.5636549    -0.3846640     0.8188592
C           2.5636454    -0.9659941     0.8028313
C           3.1024467    -2.3824014     0.8610366
H           4.1772226    -2.5222291     0.8001974
H           2.5150385    -3.1458626     0.3616778
C           2.5387030    -1.7424002     2.0991349
H           1.5693809    -2.0835260     2.4525542
H           3.2184801    -1.4133197     2.8776123
O           1.9408342    -0.7450688    -1.9805991
C           4.4086454     2.1034654     1.0688228
H           4.5666048     3.0647409     1.5399696
N           3.4067810     1.2610787     1.4749399
C           3.4994159     0.1922707     0.6955688
N           4.5303184     0.3167415    -0.2060478
C           4.9666194    -0.6332185    -1.2234221
H           4.0922841    -1.1294499    -1.6431400
H           5.6646816    -1.3671420    -0.8044531
H           5.4744976    -0.0812063    -2.0178182
C           5.1171729     1.5395367     0.0367606
H           5.9644414     1.8803685    -0.5403417
26
231_C9H13N3O_0-5-7-18 (75,) energy =    -590.2447912
C           1.0595899    -0.6716616    -1.1640919
C          -0.2871745    -0.1055830    -1.5905249
H          -1.0528266    -0.1881734    -0.8125475
H          -0.6204923    -0.6311579    -2.4876731
H          -0.1682252     0.9541243    -1.8464200
N           1.2745523    -0.6906757     0.1915034
H           0.6370931    -0.1444019     0.7589563
C           2.5720027    -0.9274533     0.7957873
C           3.0562150    -2.3615322     0.8142983
H           4.1255916    -2.5334338     0.7401027
H           2.4434443    -3.0883997     0.2921082
C           2.5206505    -1.7384587     2.0725911
H           1.5387406    -2.0504043     2.4169170
H           3.2140995    -1.4570604     2.8576809
O           1.8731167    -1.0882804    -1.9811020
C           4.5172993     2.0680713     1.1779286
H           4.7213546     2.9943492     1.6988140
N           3.5109179     1.2270757     1.5776280
C           3.5419446     0.2055486     0.7333832
N           4.5330891     0.3617537    -0.2075314
C           4.9164786    -0.5510619    -1.2798639
H           4.0279903    -1.0623915    -1.6511708
H           5.6577063    -1.2785166    -0.9286469
H           5.3563290     0.0316240    -2.0930714
C           5.1639965     1.5523934     0.0821230
H           5.9954998     1.9066469    -0.5097590
26
231_C9H13N3O_0-5-7-18 (90,) energy =    -590.2453364
C           1.0178113    -0.6949783    -1.1334842
C          -0.3352195    -0.1657380    -1.5884537
H          -0.9566255     0.2205438    -0.7747502
H          -0.8725452    -0.9710123    -2.0974121
H          -0.1737100     0.6325268    -2.3204013
N           1.3052890    -0.4933526     0.1894525
H           0.6950389     0.1169690     0.7178295
C           2.5702615    -0.8091113     0.8206111
C           2.9964735    -2.2606747     0.8138731
H           4.0606149    -2.4659793     0.7470830
H           2.3688278    -2.9511699     0.2618788
C           2.4651550    -1.6477063     2.0782360
H           1.4650620    -1.9275520     2.3964477
H           3.1535994    -1.4090582     2.8815810
O           1.7701220    -1.2752687    -1.9106200
C           4.6693629     2.0581760     1.3588646
H           4.9446653     2.9257976     1.9439366
N           3.6488134     1.2269886     1.7450779
C           3.5862536     0.2838116     0.8166210
N           4.5281381     0.4822691    -0.1663576
C           4.8143526    -0.3563762    -1.3265095
H           3.9094324    -0.8874681    -1.6261964
H           5.6129013    -1.0729785    -1.1011169
H           5.1396946     0.2822153    -2.1521068
C           5.2278449     1.6161722     0.1850441
H           6.0409640     1.9872329    -0.4220407
26
231_C9H13N3O_0-5-7-18 (105,) energy =    -590.2449050
C           1.0697779    -0.9562341    -1.1975927
C          -0.2914745    -0.5101030    -1.7150555
H          -0.7534289     0.2830046    -1.1186772
H          -0.9660862    -1.3732794    -1.7292973
H          -0.1775997    -0.1663175    -2.7462774
N           1.3737871    -0.5301716     0.0662662
H           0.7303440     0.1032072     0.5223828
C           2.5589439    -0.8741252     0.8248361
C           2.9694756    -2.3303482     0.8692698
H           4.0349456    -2.5381778     0.9025154
H           2.3957923    -3.0204235     0.2618531
C           2.3261025    -1.7038654     2.0727596
H           1.2967316    -1.9711610     2.2934794
H           2.9351349    -1.4614461     2.9366592
O           1.8104266    -1.6640847    -1.8745597
C           4.7175103     1.8893234     1.6270707
H           5.0267127     2.6810452     2.2966614
N           3.6916808     1.0368178     1.9508056
C           3.5839434     0.2047905     0.9263765
N           4.5016930     0.4950203    -0.0565623
C           4.7363439    -0.2171210    -1.3080401
H           3.8850400    -0.8616337    -1.5346020
H           5.6459823    -0.8247940    -1.2397219
H           4.8570821     0.5054993    -2.1206205
C           5.2318726     1.5735267     0.3940867
H           6.0318984     1.9989373    -0.1946284
26
231_C9H13N3O_0-5-7-18 (120,) energy =    -590.2436759
C           1.0900516    -1.0568104    -1.2485758
C          -0.2425610    -0.5803217    -1.8129938
H          -0.5440368     0.4076598    -1.4500494
H          -1.0239763    -1.3003974    -1.5437291
H          -0.1729777    -0.5603643    -2.9029356
N           1.4857715    -0.4200256    -0.1009758
H           0.8687198     0.2900275     0.2725690
C           2.5673366    -0.8085046     0.7836599
C           2.9008381    -2.2792196     0.9358367
H           3.9504849    -2.5225139     1.0729113
H           2.3527270    -2.9751307     0.3126167
C           2.1860381    -1.5627114     2.0445359
H           1.1287011    -1.7713028     2.1805092
H           2.7268133    -1.3000635     2.9469497
O           1.7397126    -1.9422360    -1.7959321
C           4.9300631     1.7409346     1.7229699
H           5.3441888     2.4251927     2.4516189
N           3.8808818     0.9111570     2.0346694
C           3.6366069     0.2190210     0.9338826
N           4.4931996     0.5713923    -0.0832158
C           4.5382381     0.0370758    -1.4382379
H           3.8633671    -0.8160854    -1.5243174
H           5.5563883    -0.2870794    -1.6756514
H           4.2325923     0.8000725    -2.1626558
C           5.3210932     1.5518115     0.4210292
H           6.0934076     2.0057433    -0.1832103
26
231_C9H13N3O_0-5-7-18 (135,) energy =    -590.2414999
C           0.9887811    -1.1792827    -1.2448270
C          -0.3030384    -0.6121111    -1.8222380
H          -0.4304352     0.4595810    -1.6371947
H          -1.1568988    -1.1413334    -1.3829207
H          -0.3149008    -0.7986597    -2.8982618
N           1.5281548    -0.4351458    -0.2238403
H           0.9821975     0.3595528     0.0868099
C           2.5463946    -0.8393604     0.7306638
C           2.8926263    -2.3042220     0.9146224
H           3.9372395    -2.5247625     1.1159449
H           2.3895218    -3.0128622     0.2691780
C           2.1040595    -1.5885839     1.9744233
H           1.0435884    -1.8121239     2.0481670
H           2.5864896    -1.3124244     2.9056158
O           1.4912721    -2.2068229    -1.6857776
C           4.8658088     1.7173194     1.7578462
H           5.2629084     2.3938935     2.5028691
N           3.8168392     0.8761849     2.0410448
C           3.5964138     0.1981459     0.9274109
N           4.4691973     0.5682543    -0.0696517
C           4.5217766     0.0574749    -1.4324499
H           3.9464354    -0.8669292    -1.5005265
H           5.5601070    -0.1479810    -1.7089772
H           4.1025783     0.7829580    -2.1384185
C           5.2814241     1.5483882     0.4606598
H           6.0607837     2.0159198    -0.1237764
26
231_C9H13N3O_0-5-7-18 (150,) energy =    -590.2394777
C           0.8595641    -1.2485221    -1.1940493
C          -0.3301293    -0.5369456    -1.8303854
H          -0.2629367     0.5550933    -1.7885559
H          -1.2492058    -0.8472804    -1.3196774
H          -0.4077671    -0.8553711    -2.8724002
N           1.5749054    -0.4694885    -0.3158044
H           1.1610230     0.4277259    -0.0924311
C           2.5685054    -0.8818939     0.6648530
C           2.9768571    -2.3359062     0.8199220
H           4.0260095    -2.5150081     1.0395874
H           2.5042397    -3.0501351     0.1585497
C           2.1355313    -1.6762130     1.8797698
H           1.0859225    -1.9525020     1.9230441
H           2.5839780    -1.4034137     2.8288484
O           1.1305646    -2.4094488    -1.4759375
C           4.7810022     1.7401207     1.7619345
H           5.1320340     2.4300972     2.5176503
N           3.7440842     0.8735629     2.0097710
C           3.5850587     0.1819156     0.8939712
N           4.4864240     0.5699802    -0.0711929
C           4.5992492     0.0558622    -1.4280098
H           4.1634536    -0.9430235    -1.4750916
H           5.6542802    -0.0022608    -1.7093046
H           4.0738532     0.7005453    -2.1411578
C           5.2510036     1.5749214     0.4829656
H           6.0401667     2.0589997    -0.0741686
26
231_C9H13N3O_0-5-7-18 (165,) energy =    -590.2385875
C           0.7114509    -1.2653744    -1.0591456
C          -0.3744116    -0.4885339    -1.7962237
H          -0.1344825     0.5692033    -1.9453032
H          -1.3109316    -0.5567096    -1.2306729
H          -0.5406431    -0.9618123    -2.7667646
N           1.5926190    -0.4772301    -0.3606337
H           1.3272145     0.4948253    -0.2622488
C           2.5796376    -0.8927149     0.6298362
C           3.0559088    -2.3322682     0.7320806
H           4.1111145    -2.4748765     0.9508133
H           2.6047747    -3.0521845     0.0624460
C           2.1791053    -1.7450412     1.8105380
H           1.1472302    -2.0816342     1.8335672
H           2.6087398    -1.4852067     2.7720022
O           0.7649337    -2.4882975    -1.1104953
C           4.6824364     1.7985596     1.7708960
H           4.9812387     2.5112730     2.5279373
N           3.6550934     0.9132434     1.9877313
C           3.5653874     0.1942400     0.8815398
N           4.5032740     0.5848051    -0.0487091
C           4.6943937     0.0495641    -1.3882383
H           4.3024852    -0.9672967    -1.4300309
H           5.7619547     0.0295717    -1.6233855
H           4.1746182     0.6570314    -2.1373078
C           5.2177152     1.6179159     0.5199015
H           6.0227685     2.1078344    -0.0086620
26
231_C9H13N3O_0-5-7-18 (180,) energy =    -590.2381584
C           0.6517202    -1.5474466    -0.8155856
C          -0.4269521    -0.8271594    -1.6162122
H          -0.1156216     0.1555827    -1.9847591
H          -1.3147281    -0.6973666    -0.9862938
H          -0.7116317    -1.4571625    -2.4620717
N           1.6432132    -0.7299422    -0.3293425
H           1.4485087     0.2628177    -0.3636309
C           2.6414986    -1.0797146     0.6809709
C           3.2225594    -2.4789358     0.7661398
H           4.2861214    -2.5539414     0.9788105
H           2.8194555    -3.2280862     0.0967355
C           2.3031739    -1.9693386     1.8515345
H           1.3051725    -2.3925230     1.8700270
H           2.7131653    -1.6832344     2.8141936
O           0.6180365    -2.7592364    -0.6391342
C           4.5328370     1.7591451     1.8382722
H           4.7541132     2.5084225     2.5865862
N           3.5519929     0.8185582     2.0361273
C           3.5462746     0.0735672     0.9438618
N           4.4850697     0.5107593     0.0344958
C           4.8257040    -0.0999860    -1.2424911
H           3.9538799    -0.6214955    -1.6393063
H           5.6495019    -0.8140320    -1.1319888
H           5.1242764     0.6790792    -1.9490025
C           5.1222568     1.5893173     0.6102533
H           5.9128700     2.1193805     0.0988633
