26
231_C9H13N3O_5-7-18-17 (-165,) energy =    -590.2375328
C           1.7569486    -1.2758183    -1.2088127
C           0.5802891    -1.0761892    -2.1570607
H          -0.0392196    -0.2053324    -1.9183583
H          -0.0529916    -1.9699026    -2.1278899
H           0.9610180    -0.9791395    -3.1768887
N           1.6910314    -0.5527142    -0.0408292
H           0.8970077     0.0543584     0.1064403
C           2.6236082    -0.7124650     1.0459746
C           2.5437883    -2.0085454     1.8292530
H           3.4854770    -2.3904516     2.2061707
H           1.8424854    -2.7478243     1.4563931
C           2.0003211    -0.7497899     2.4364521
H           0.9210075    -0.6288608     2.5067355
H           2.5717107    -0.2776102     3.2290454
O           2.6833832    -2.0280659    -1.4672620
C           6.0433238     0.3367310     1.3761358
H           6.9960211     0.2563377     1.8822345
N           4.9740759    -0.4463818     1.7326553
C           3.9841054    -0.1027401     0.9258040
N           4.3720075     0.8902142     0.0564311
C           3.6371626     1.5280344    -1.0275524
H           3.4556627     0.8252923    -1.8453148
H           4.2401828     2.3575409    -1.4033397
H           2.6833588     1.9270252    -0.6752698
C           5.7006087     1.1635492     0.3418891
H           6.2525000     1.9018969    -0.2209668
26
231_C9H13N3O_5-7-18-17 (-150,) energy =    -590.2374297
C           2.1512462    -1.1755046    -1.2542783
C           1.0875218    -1.1076788    -2.3446769
H           0.3278925    -0.3356705    -2.1834312
H           0.5921279    -2.0813054    -2.4117918
H           1.5783145    -0.9279135    -3.3060585
N           1.9847612    -0.2798775    -0.2213151
H           1.1756603     0.3245138    -0.2323066
C           2.8482019    -0.2384219     0.9331474
C           2.7887746    -1.4105168     1.8843691
H           3.7263939    -1.6828318     2.3547835
H           2.1522736    -2.2355513     1.5834634
C           2.1397370    -0.1158360     2.2796630
H           1.0532485    -0.0558044     2.2715116
H           2.6274957     0.4962330     3.0319088
O           3.0802607    -1.9645219    -1.3019507
C           6.2348572     0.9602549     1.1160907
H           7.2306498     0.8934294     1.5333535
N           5.2478379     0.0754114     1.4737452
C           4.1776786     0.4257428     0.7825163
N           4.4323434     1.5236369    -0.0086747
C           3.5319774     2.2508839    -0.8898504
H           3.2708377     1.6615849    -1.7730467
H           4.0317321     3.1671845    -1.2116742
H           2.6138179     2.5295671    -0.3639491
C           5.7594609     1.8588672     0.1994816
H           6.2194703     2.6820771    -0.3274750
26
231_C9H13N3O_5-7-18-17 (-135,) energy =    -590.2373530
C           2.1993548    -1.2892680    -1.2740055
C           1.1989600    -1.2428951    -2.4241868
H           0.4718062    -0.4270092    -2.3546935
H           0.6592361    -2.1943578    -2.4583110
H           1.7493870    -1.1486396    -3.3652076
N           2.0231200    -0.3182946    -0.3125831
H           1.2607920     0.3349419    -0.4224229
C           2.8518746    -0.2070020     0.8645655
C           2.7429191    -1.3026470     1.8944934
H           3.6617369    -1.5615310     2.4076564
H           2.0980258    -2.1358162     1.6380757
C           2.1066831     0.0291592     2.1753722
H           1.0222545     0.1027211     2.1278637
H           2.5770219     0.6877644     2.8993225
O           3.0830716    -2.1273251    -1.2162003
C           6.3036699     0.8228732     0.8483677
H           7.3339084     0.6702516     1.1408298
N           5.3185557    -0.0635191     1.2082706
C           4.1995170     0.4115001     0.6925135
N           4.4229935     1.5884975     0.0130188
C           3.4532212     2.4302493    -0.6663510
H           3.1342173     1.9907306    -1.6168021
H           3.9085911     3.4036258    -0.8617329
H           2.5739864     2.5856970    -0.0333342
C           5.7781715     1.8470540     0.1051480
H           6.2198403     2.7133814    -0.3656277
26
231_C9H13N3O_5-7-18-17 (-120,) energy =    -590.2367139
C           2.0144848    -1.3459363    -1.1702463
C           1.0986357    -1.2538445    -2.3864644
H           0.2692485    -0.5490081    -2.2634336
H           0.6975130    -2.2482877    -2.5955337
H           1.6890964    -0.9465703    -3.2571911
N           1.9187505    -0.2812496    -0.2992062
H           1.2686475     0.4588677    -0.5236508
C           2.7487051    -0.1250928     0.8728038
C           2.6022377    -1.1575397     1.9588909
H           3.5111872    -1.4244924     2.4855499
H           1.9296182    -1.9813455     1.7498546
C           2.0134142     0.2092850     2.1680285
H           0.9327390     0.3168540     2.1125837
H           2.5057697     0.8880064     2.8584191
O           2.7751889    -2.2824538    -0.9975407
C           6.2470950     0.6966091     0.5831487
H           7.2912184     0.4491258     0.7206208
N           5.2511349    -0.1726588     0.9549506
C           4.1161274     0.4337932     0.6597931
N           4.3425823     1.6768931     0.1090911
C           3.3524348     2.6270329    -0.3637386
H           3.0079136     2.3815847    -1.3751015
H           3.7911114     3.6275844    -0.3752260
H           2.4933740     2.6374423     0.3132039
C           5.7126997     1.8416073     0.0503156
H           6.1574806     2.7393345    -0.3542512
26
231_C9H13N3O_5-7-18-17 (-105,) energy =    -590.2356811
C           1.9759889    -1.4754327    -1.1001049
C           1.1689901    -1.4145838    -2.3932349
H           0.4349224    -0.6020847    -2.4194859
H           0.6542183    -2.3688322    -2.5275284
H           1.8570864    -1.2889488    -3.2369943
N           1.9416008    -0.3157358    -0.3522856
H           1.4490653     0.4756736    -0.7438738
C           2.7465506    -0.0825531     0.8253083
C           2.5736684    -1.0512868     1.9634461
H           3.4706508    -1.2952301     2.5213120
H           1.9024388    -1.8834936     1.7895727
C           1.9909413     0.3282220     2.0869784
H           0.9129248     0.4387174     2.0036338
H           2.4749255     1.0388121     2.7513125
O           2.5923670    -2.4729552    -0.7678250
C           6.2400457     0.6598323     0.3333708
H           7.2800708     0.3617078     0.3336886
N           5.2448477    -0.2177005     0.6860016
C           4.1168541     0.4628717     0.5956368
N           4.3489075     1.7618562     0.1907863
C           3.3637857     2.7921781    -0.0839831
H           3.0491906     2.7795622    -1.1350581
H           3.7886555     3.7741764     0.1400965
H           2.4889102     2.6415533     0.5524781
C           5.7125827     1.8860758     0.0169357
H           6.1603850     2.8166455    -0.3009910
26
231_C9H13N3O_5-7-18-17 (-90,) energy =    -590.2343616
C           1.8049296    -1.5591264    -1.0810689
C           1.1260850    -1.5330713    -2.4469475
H           0.4263944    -0.6998348    -2.5734723
H           0.5944696    -2.4762677    -2.5898690
H           1.8940228    -1.4614071    -3.2261061
N           1.8247597    -0.3360389    -0.4377465
H           1.4801175     0.4574104    -0.9623391
C           2.5909925    -0.0419992     0.7526540
C           2.3774311    -0.9605437     1.9276049
H           3.2559546    -1.1871722     2.5215727
H           1.7068530    -1.7958416     1.7706786
C           1.8066765     0.4268681     1.9760656
H           0.7331172     0.5447508     1.8566526
H           2.2769951     1.1574808     2.6286328
O           2.2758706    -2.5809935    -0.6128272
C           6.0755930     0.5990644     0.1032623
H           7.0902592     0.2480007    -0.0307816
N           5.0549512    -0.2656101     0.4074675
C           3.9709392     0.4804971     0.5217091
N           4.2566934     1.8125587     0.2848351
C           3.3393448     2.9387149     0.2362272
H           3.2083496     3.2945064    -0.7925033
H           3.7202684     3.7645821     0.8455491
H           2.3705514     2.6338673     0.6324055
C           5.6083994     1.8862519     0.0181406
H           6.0937638     2.8290412    -0.1900382
26
231_C9H13N3O_5-7-18-17 (-75,) energy =    -590.2331110
C           1.7169304    -1.6789400    -1.0578034
C           1.1474825    -1.7457154    -2.4712125
H           0.4678078    -0.9190499    -2.7052376
H           0.6198233    -2.6939798    -2.5905172
H           1.9739940    -1.7265040    -3.1916479
N           1.7785604    -0.3971641    -0.5406384
H           1.5561635     0.3514698    -1.1844086
C           2.5147847    -0.0108375     0.6426018
C           2.2629965    -0.8384348     1.8802570
H           3.1232292    -1.0233518     2.5148333
H           1.5927341    -1.6807737     1.7694439
C           1.7065194     0.5523692     1.8079181
H           0.6387891     0.6714485     1.6474702
H           2.1618349     1.3222976     2.4240409
O           2.0678246    -2.6780703    -0.4543596
C           5.9707288     0.5508788    -0.1942356
H           6.9452700     0.1705555    -0.4707099
N           4.9225413    -0.2922311     0.0689399
C           3.9005826     0.4849210     0.3836718
N           4.2495460     1.8205018     0.3015937
C           3.4315938     2.9964851     0.5561280
H           3.7705102     3.8132230    -0.0863656
H           3.5019799     3.3194575     1.6013798
H           2.3866604     2.7835127     0.3272127
C           5.5822382     1.8593897    -0.0554094
H           6.1091178     2.7958903    -0.1687165
26
231_C9H13N3O_5-7-18-17 (-60,) energy =    -590.2315839
C           0.3156719    -0.3015417    -0.2775581
C          -0.7478996     0.5504090     0.4063995
H          -0.7394379     0.4568206     1.4979350
H          -1.7282500     0.2603211     0.0240514
H          -0.5806559     1.6036570     0.1505454
N           1.4428801    -0.5121863     0.4989725
H           1.4892977     0.0254775     1.3555341
C           2.7151543    -0.9873095     0.0044988
C           2.6575253    -2.2405173    -0.8439136
H           3.3513628    -2.2870253    -1.6770594
H           1.6728228    -2.6371583    -1.0525553
C           3.2073258    -2.3255251     0.5474188
H           2.5931374    -2.7852163     1.3162039
H           4.2735194    -2.4855840     0.6669493
O           0.1580556    -0.7571962    -1.3968713
C           4.4307004     1.8948547    -1.2923757
H           4.4620678     2.7349769    -1.9735665
N           3.3864280     1.0085255    -1.2989387
C           3.6629608     0.1089167    -0.3694616
N           4.8514449     0.4094133     0.2708718
C           5.5002461    -0.2606539     1.3888638
H           6.1125498    -1.1069528     1.0573019
H           4.7559020    -0.6208387     2.1006565
H           6.1472920     0.4579052     1.8972268
C           5.3490642     1.5466706    -0.3356260
H           6.2894577     1.9816525    -0.0295709
26
231_C9H13N3O_5-7-18-17 (-45,) energy =    -590.2305721
C           0.3337612    -0.3703634    -0.4217513
C          -0.7798064     0.5175297     0.1192297
H          -0.9417601     0.3853797     1.1949400
H          -1.7021703     0.2939536    -0.4191085
H          -0.5178591     1.5673165    -0.0608238
N           1.3794157    -0.5521303     0.4707390
H           1.3564197     0.0509059     1.2840748
C           2.7050614    -0.9864962     0.0951093
C           2.7679862    -2.2628253    -0.7207068
H           3.5521393    -2.3119720    -1.4703002
H           1.8223968    -2.6893343    -1.0278556
C           3.1698691    -2.2973076     0.7232309
H           2.4792338    -2.7391145     1.4351036
H           4.2148998    -2.4482846     0.9630319
O           0.2798000    -0.8817579    -1.5268682
C           4.2593594     2.0449715    -1.0489127
H           4.1919730     2.9644186    -1.6152167
N           3.2036700     1.1760032    -0.9666159
C           3.6128246     0.1662955    -0.2146448
N           4.9118041     0.3653046     0.2126983
C           5.7459417    -0.4313455     1.1022324
H           6.1084201    -1.3419996     0.6135471
H           5.1992423    -0.7031682     2.0076741
H           6.6102337     0.1706890     1.3899308
C           5.3254681     1.5673702    -0.3345460
H           6.3176612     1.9533795    -0.1515594
26
231_C9H13N3O_5-7-18-17 (-30,) energy =    -590.2318647
C           0.3672037    -0.4028113    -0.5027607
C          -0.8029533     0.4846587    -0.1041762
H          -1.1085925     0.3334388     0.9372404
H          -1.6456672     0.2812005    -0.7666424
H          -0.5059668     1.5335667    -0.2246889
N           1.3016496    -0.5807878     0.5088274
H           1.2077695     0.0620084     1.2863216
C           2.6658645    -0.9712070     0.2503095
C           2.8654853    -2.2810973    -0.4808015
H           3.7233143    -2.3339256    -1.1456985
H           1.9752272    -2.7665070    -0.8595809
C           3.1122932    -2.2250477     0.9988747
H           2.3603928    -2.6555612     1.6528289
H           4.1248897    -2.3114054     1.3714348
O           0.4504952    -0.9254714    -1.6009483
C           4.1067170     2.1742054    -0.7184856
H           3.9740867     3.1604119    -1.1428625
N           3.0474371     1.3217196    -0.5426170
C           3.5428553     0.2204020     0.0011750
N           4.9097249     0.3270103     0.1679775
C           5.8739818    -0.6144892     0.7213185
H           5.8494183    -1.5699451     0.1900258
H           5.6973081    -0.7885821     1.7868850
H           6.8718042    -0.1875633     0.6038314
C           5.2651213     1.5837389    -0.2941166
H           6.2909341     1.9208388    -0.2618109
26
231_C9H13N3O_5-7-18-17 (-15,) energy =    -590.2341549
C           0.4179424    -0.4308012    -0.5749117
C          -0.7904081     0.4415783    -0.2718473
H          -1.1824562     0.2765471     0.7378967
H          -1.5707096     0.2383304    -1.0068781
H          -0.4923674     1.4937793    -0.3548811
N           1.2670069    -0.6081074     0.5109948
H           1.1255219     0.0577142     1.2620119
C           2.6468934    -0.9819295     0.3363130
C           2.8947406    -2.3282926    -0.3055954
H           3.7640547    -2.4152916    -0.9508362
H           2.0203039    -2.8514913    -0.6716183
C           3.0932209    -2.1766088     1.1753437
H           2.3357135    -2.5915752     1.8328764
H           4.0967121    -2.1944144     1.5847260
O           0.6033774    -0.9447274    -1.6648031
C           4.0538607     2.2324502    -0.4449294
H           3.9010746     3.2653161    -0.7276135
N           2.9957211     1.3819701    -0.2410890
C           3.5197859     0.2120776     0.0892452
N           4.8990493     0.2718125     0.0877180
C           5.8936819    -0.7378565     0.4252609
H           5.6481939    -1.7007959    -0.0256855
H           5.9906913    -0.8624128     1.5092782
H           6.8580926    -0.4158159     0.0267161
C           5.2353307     1.5733009    -0.2502323
H           6.2679775     1.8843050    -0.3136714
26
231_C9H13N3O_5-7-18-17 (0,) energy =    -590.2353556
C           0.5901801    -0.5925891    -0.6314377
C          -0.6627317     0.2509145    -0.4535787
H          -1.1381792     0.0863872     0.5196527
H          -1.3676907     0.0154204    -1.2522609
H          -0.3895524     1.3109225    -0.5234367
N           1.3639965    -0.6960203     0.5175511
H           1.1778800     0.0217921     1.2089318
C           2.7555797    -1.0579250     0.4439026
C           3.0535119    -2.4563710    -0.0407023
H           3.9519332    -2.6093485    -0.6288423
H           2.1999824    -3.0266463    -0.3862607
C           3.1755512    -2.1522095     1.4249301
H           2.3967684    -2.5161865     2.0878598
H           4.1575777    -2.0881756     1.8834241
O           0.8718393    -1.1456524    -1.6815703
C           4.1566413     2.1870430    -0.2086799
H           4.0048189     3.2484106    -0.3517967
N           3.1038531     1.3389068     0.0355209
C           3.6277053     0.1314507     0.1757310
N           4.9992346     0.1674179     0.0270577
C           5.9689762    -0.9157062    -0.0740939
H           5.9805441    -1.3480363    -1.0808337
H           5.7600323    -1.7035623     0.6493087
H           6.9610848    -0.5129923     0.1431485
C           5.3316262     1.4899301    -0.2247605
H           6.3580602     1.7862326    -0.3854645
26
231_C9H13N3O_5-7-18-17 (15,) energy =    -590.2363477
C           0.6561493    -0.6547967    -0.6557391
C          -0.6272993     0.1566728    -0.5623606
H          -1.1435015     0.0054864     0.3918864
H          -1.2856797    -0.1230628    -1.3861712
H          -0.3851267     1.2229316    -0.6510672
N           1.3755944    -0.7039427     0.5300330
H           1.1577458     0.0418116     1.1819556
C           2.7715800    -1.0592248     0.5306874
C           3.0762677    -2.4828499     0.1326142
H           3.9774648    -2.6881546    -0.4321648
H           2.2206146    -3.0660826    -0.1850842
C           3.1808868    -2.0923653     1.5789517
H           2.4049793    -2.4244713     2.2619313
H           4.1646652    -1.9870108     2.0285338
O           1.0039655    -1.2265765    -1.6762941
C           4.2135249     2.1980964     0.0755809
H           4.0900132     3.2727190     0.0774593
N           3.1600261     1.3541376     0.3287953
C           3.6458558     0.1248298     0.2491974
N           4.9929938     0.1431589    -0.0385555
C           5.9121980    -0.9558648    -0.3026453
H           5.7186475    -1.4124456    -1.2786983
H           5.8466186    -1.7221966     0.4727909
H           6.9296184    -0.5593752    -0.3002315
C           5.3517058     1.4772299    -0.1553925
H           6.3650775     1.7639706    -0.3957426
26
231_C9H13N3O_5-7-18-17 (30,) energy =    -590.2364438
C           0.7004789    -0.6317214    -0.7574240
C          -0.6087053     0.1437338    -0.7781063
H          -1.1915648    -0.0040785     0.1372918
H          -1.1939607    -0.1720649    -1.6431644
H          -0.3946424     1.2155199    -0.8734917
N           1.3194508    -0.6613109     0.4813825
H           1.0474084     0.0801971     1.1177548
C           2.7111113    -1.0244471     0.5985623
C           3.0242399    -2.4709438     0.3073641
H           3.9653176    -2.7338537    -0.1577820
H           2.1847769    -3.0584111    -0.0449571
C           3.0223460    -1.9996778     1.7327679
H           2.1957295    -2.2840426     2.3768226
H           3.9762573    -1.8776047     2.2388668
O           1.1509116    -1.1941312    -1.7436478
C           4.2556996     2.2048516     0.3781485
H           4.1891707     3.2731886     0.5346009
N           3.2044696     1.3704649     0.6644814
C           3.6134015     0.1475955     0.3600994
N           4.9030106     0.1611748    -0.1183794
C           5.7099343    -0.9277319    -0.6528613
H           5.2076940    -1.4058286    -1.4978968
H           5.9289793    -1.6782284     0.1129320
H           6.6566778    -0.5112900    -1.0019898
C           5.3137488     1.4844649    -0.1049190
H           6.2979050     1.7678730    -0.4480943
26
231_C9H13N3O_5-7-18-17 (45,) energy =    -590.2389513
C           0.9909018    -0.4872106    -0.9210570
C          -0.3445720     0.2131494    -1.1163974
H          -1.0341755     0.0410869    -0.2836034
H          -0.7957088    -0.1372852    -2.0465221
H          -0.1767271     1.2937389    -1.2035733
N           1.3938384    -0.6115385     0.3935572
H           0.9781529     0.0297916     1.0594910
C           2.7637454    -0.9687173     0.6858802
C           3.1295702    -2.4225440     0.5189661
H           4.1425709    -2.6804605     0.2337212
H           2.3680216    -3.0503509     0.0698272
C           2.8992684    -1.8837407     1.8997352
H           1.9827256    -2.1521736     2.4166623
H           3.7599722    -1.7258952     2.5423601
O           1.6532185    -0.9171097    -1.8565265
C           4.4266938     2.2048258     0.5974322
H           4.4536308     3.2501850     0.8752884
N           3.4240283     1.3739062     1.0284111
C           3.7115107     0.1775440     0.5373824
N           4.8426965     0.2163221    -0.2437883
C           5.3459386    -0.8057400    -1.1542953
H           4.5091383    -1.2571190    -1.6916182
H           5.9111456    -1.5802903    -0.6248756
H           6.0109345    -0.3259178    -1.8751661
C           5.3117622     1.5155379    -0.1903481
H           6.2095339     1.8106959    -0.7134040
26
231_C9H13N3O_5-7-18-17 (60,) energy =    -590.2427315
C           1.0421395    -0.5431052    -0.8538026
C          -0.3020562     0.1157994    -1.1228154
H          -0.9322778     0.1940186    -0.2315766
H          -0.8278118    -0.4576165    -1.8901108
H          -0.1318871     1.1230258    -1.5202853
N           1.4096762    -0.6043764     0.4695293
H           0.9311145     0.0100253     1.1171545
C           2.7537931    -0.9746794     0.8565550
C           3.1225899    -2.4335924     0.7397041
H           4.1539995    -2.6842003     0.5156380
H           2.3911683    -3.0773636     0.2637631
C           2.8108237    -1.8604929     2.0917130
H           1.8627115    -2.1200046     2.5536157
H           3.6269666    -1.6863209     2.7854020
O           1.7347238    -0.9966078    -1.7580756
C           4.6281125     2.0813521     0.9166818
H           4.7802651     3.0797985     1.3050383
N           3.6361742     1.2675137     1.4003308
C           3.7510835     0.1285587     0.7329279
N           4.7576707     0.1941102    -0.2018903
C           5.0848002    -0.7794816    -1.2387656
H           4.1608231    -1.2041333    -1.6358735
H           5.7319299    -1.5752469    -0.8533482
H           5.6124633    -0.2620527    -2.0429538
C           5.3324173     1.4414908    -0.0725350
H           6.1698787     1.7420942    -0.6850902
26
231_C9H13N3O_5-7-18-17 (75,) energy =    -590.2448945
C           1.0511702    -0.6309256    -0.9102295
C          -0.3024508    -0.0099925    -1.2235469
H          -0.9229476     0.1535414    -0.3369691
H          -0.8332395    -0.6612642    -1.9221149
H          -0.1459250     0.9530560    -1.7228454
N           1.4331696    -0.5578733     0.4042270
H           0.9082808     0.0559721     1.0145761
C           2.7543416    -0.9208691     0.8729062
C           3.1269939    -2.3838530     0.8037877
H           4.1682864    -2.6304294     0.6212842
H           2.4171388    -3.0431178     0.3167556
C           2.7611053    -1.7743759     2.1267895
H           1.7946621    -2.0251654     2.5543457
H           3.5454974    -1.5752534     2.8493251
O           1.7331391    -1.1620980    -1.7808293
C           4.8401377     1.9932550     1.0933613
H           5.1077334     2.9223429     1.5792344
N           3.8335157     1.1966171     1.5760439
C           3.7835295     0.1531735     0.7610192
N           4.7096579     0.2596498    -0.2500204
C           4.9431124    -0.6615924    -1.3578972
H           3.9955015    -1.1110430    -1.6595557
H           5.6597870    -1.4424696    -1.0780441
H           5.3525241    -0.0973547    -2.1993371
C           5.3967528     1.4343924    -0.0306132
H           6.1991973     1.7480348    -0.6824582
26
231_C9H13N3O_5-7-18-17 (90,) energy =    -590.2453098
C           1.0493634    -0.7582384    -1.0997884
C          -0.3063584    -0.2399006    -1.5598728
H          -0.9218192     0.1713009    -0.7539020
H          -0.8483730    -1.0588128    -2.0414002
H          -0.1489027     0.5360091    -2.3162972
N           1.3430583    -0.5262642     0.2161831
H           0.7214280     0.0756754     0.7406034
C           2.5971218    -0.8481857     0.8661782
C           3.0264515    -2.2993101     0.8499302
H           4.0922799    -2.5001889     0.7967482
H           2.4098035    -2.9847035     0.2796548
C           2.4742454    -1.7009092     2.1123337
H           1.4698445    -1.9856727     2.4120776
H           3.1497057    -1.4687806     2.9284034
O           1.7992576    -1.3518532    -1.8694592
C           4.7232466     1.9799150     1.5022999
H           5.0173839     2.8142919     2.1253243
N           3.7053225     1.1361024     1.8679566
C           3.6136929     0.2441081     0.8927051
N           4.5366520     0.4860407    -0.0985438
C           4.8016798    -0.3006299    -1.2990908
H           3.9059596    -0.8570857    -1.5799031
H           5.6338393    -0.9945023    -1.1313876
H           5.0685396     0.3757004    -2.1158277
C           5.2525284     1.5959383     0.2951749
H           6.0544627     1.9927521    -0.3105559
26
231_C9H13N3O_5-7-18-17 (105,) energy =    -590.2448097
C           1.1320627    -0.9180682    -1.0913375
C          -0.1987526    -0.4031443    -1.6241685
H          -0.7529763     0.2200249    -0.9155872
H          -0.8182077    -1.2607235    -1.9035334
H          -0.0131276     0.1738717    -2.5355751
N           1.4517004    -0.4963501     0.1703610
H           0.8337260     0.1702893     0.6143992
C           2.6421623    -0.8397484     0.9210367
C           3.0155702    -2.3069680     0.9978741
H           4.0760876    -2.5399912     1.0159119
H           2.4116238    -2.9971976     0.4204543
C           2.4124152    -1.6295305     2.1941111
H           1.3801266    -1.8616338     2.4396345
H           3.0436398    -1.3775238     3.0387265
O           1.8406911    -1.6626059    -1.7628459
C           4.9891815     1.7792977     1.6830903
H           5.3988727     2.5040061     2.3742806
N           3.9547874     0.9520190     2.0415865
C           3.7064298     0.2061209     0.9756062
N           4.5515906     0.5210296    -0.0641235
C           4.6492908    -0.1053311    -1.3776366
H           3.8519140    -0.8396433    -1.5014884
H           5.6204920    -0.6003088    -1.4866115
H           4.5519115     0.6536035    -2.1609181
C           5.3729150     1.5309156     0.3892441
H           6.1367550     1.9619818    -0.2419937
26
231_C9H13N3O_5-7-18-17 (120,) energy =    -590.2442284
C           1.2940085    -0.8981072    -1.1057484
C          -0.0184069    -0.3980856    -1.6967275
H          -0.4218542     0.4872871    -1.1950186
H          -0.7625576    -1.2002166    -1.6381940
H           0.1382376    -0.1736317    -2.7547551
N           1.5970378    -0.3898180     0.1297467
H           0.9661545     0.2995563     0.5177001
C           2.7098232    -0.7629664     0.9779701
C           3.0325645    -2.2415714     1.1011996
H           4.0825156    -2.4995157     1.2019991
H           2.4563990    -2.9227846     0.4861261
C           2.3618411    -1.5302269     2.2391406
H           1.3067182    -1.7266138     2.4067108
H           2.9365250    -1.2822868     3.1242093
O           1.9950860    -1.7096951    -1.7018151
C           5.2365884     1.6169606     1.9337724
H           5.7440390     2.1976671     2.6926513
N           4.1870539     0.7900243     2.2470069
C           3.8082342     0.2409006     1.1029678
N           4.5879218     0.6781216     0.0568390
C           4.5112903     0.2993849    -1.3481344
H           3.9510232    -0.6304833    -1.4561254
H           5.5231669     0.1575439    -1.7383579
H           4.0131366     1.0791301    -1.9360388
C           5.4979002     1.5678721     0.5880573
H           6.2282670     2.0651604    -0.0339265
26
231_C9H13N3O_5-7-18-17 (135,) energy =    -590.2432922
C           1.3736782    -0.9710584    -1.1415372
C           0.0788999    -0.5102320    -1.7999803
H          -0.3307885     0.4121616    -1.3758184
H          -0.6719673    -1.3019468    -1.6993180
H           0.2617099    -0.3667637    -2.8678031
N           1.6487551    -0.3742382     0.0619002
H           0.9951540     0.3242348     0.3920057
C           2.7078643    -0.7236865     0.9835194
C           2.9735435    -2.2024870     1.2168555
H           4.0095224    -2.4813550     1.3826609
H           2.4036714    -2.9045876     0.6194394
C           2.2783846    -1.3979233     2.2738944
H           1.2101111    -1.5470735     2.4039532
H           2.8259594    -1.1120677     3.1646900
O           2.0895461    -1.8201917    -1.6608869
C           5.4396061     1.4249356     1.9185251
H           6.0541727     1.8854427     2.6805721
N           4.3752902     0.6221317     2.2443845
C           3.8478686     0.2357605     1.0927486
N           4.5497306     0.7486212     0.0263362
C           4.3305774     0.5251495    -1.3969435
H           3.9422176    -0.4805240    -1.5662980
H           5.2850703     0.6321174    -1.9179876
H           3.6216156     1.2531524    -1.8079315
C           5.5626250     1.5224229     0.5567433
H           6.2549976     2.0543860    -0.0795838
26
231_C9H13N3O_5-7-18-17 (150,) energy =    -590.2417672
C           1.4528761    -1.0292162    -1.1526350
C           0.1711915    -0.6277217    -1.8726761
H          -0.2805702     0.2950274    -1.4943702
H          -0.5598708    -1.4379155    -1.7734053
H           0.3890113    -0.5130527    -2.9374658
N           1.6743769    -0.3761315     0.0338825
H           0.9880423     0.3103648     0.3195738
C           2.6936067    -0.6920305     1.0076217
C           2.8897440    -2.1611684     1.3535827
H           3.9086082    -2.4637229     1.5725490
H           2.3085230    -2.8811616     0.7887105
C           2.1988771    -1.2571471     2.3284255
H           1.1217232    -1.3524666     2.4366504
H           2.7384835    -0.9354410     3.2119920
O           2.2098895    -1.8757993    -1.6115694
C           5.6363259     1.1850962     1.8697756
H           6.3547535     1.5088297     2.6110174
N           4.5581238     0.4068341     2.2083203
C           3.8866238     0.2063835     1.0845592
N           4.5085591     0.8135137     0.0182144
C           4.1638708     0.7674361    -1.3980021
H           3.8990777    -0.2499295    -1.6916820
H           5.0358598     1.0879599    -1.9721268
H           3.3281442     1.4373737    -1.6262038
C           5.6242412     1.4529009     0.5267992
H           6.2805194     2.0259500    -0.1117942
26
231_C9H13N3O_5-7-18-17 (165,) energy =    -590.2399686
C           1.5416508    -1.1220440    -1.1638710
C           0.2847109    -0.7992127    -1.9628087
H          -0.2349207     0.1045527    -1.6281884
H          -0.4080966    -1.6449359    -1.8895524
H           0.5563216    -0.6902821    -3.0158501
N           1.6706184    -0.4289576     0.0148798
H           0.9405323     0.2298023     0.2520975
C           2.6535421    -0.6957056     1.0355955
C           2.7615230    -2.1347047     1.5201280
H           3.7577181    -2.4640730     1.7949410
H           2.1526870    -2.8709056     1.0066916
C           2.0981412    -1.1117146     2.3893618
H           1.0152629    -1.1410822     2.4824663
H           2.6405552    -0.7447166     3.2536983
O           2.3630984    -1.9405383    -1.5540404
C           5.7850755     0.9004093     1.7761710
H           6.5931163     1.0847687     2.4714506
N           4.7017937     0.1331709     2.1232179
C           3.9077034     0.1211554     1.0636636
N           4.4489743     0.8458039     0.0278002
C           3.9800842     1.0104125    -1.3439316
H           3.8104024     0.0370137    -1.8086284
H           4.7533509     1.5410223    -1.9031620
H           3.0582262     1.5977006    -1.3808744
C           5.6524170     1.3516903     0.4913032
H           6.2744496     1.9741223    -0.1349135
26
231_C9H13N3O_5-7-18-17 (180,) energy =    -590.2383986
C           1.6588989    -1.1880655    -1.1988223
C           0.4385201    -0.9359151    -2.0761298
H          -0.1437003    -0.0556166    -1.7844639
H          -0.2155973    -1.8138911    -2.0328366
H           0.7664031    -0.8240700    -3.1126961
N           1.6809740    -0.4825581    -0.0194681
H           0.9102676     0.1419903     0.1753308
C           2.6336847    -0.7026696     1.0382081
C           2.6376366    -2.0848095     1.6709440
H           3.6051141    -2.4478319     1.9989363
H           1.9815331    -2.8238171     1.2230599
C           2.0324418    -0.9365410     2.4181669
H           0.9489344    -0.8853839     2.5009862
H           2.5893475    -0.5226474     3.2520239
O           2.5458655    -1.9630217    -1.5251680
C           5.9323457     0.5985639     1.6053524
H           6.8187679     0.6421245     2.2239609
N           4.8512512    -0.1710198     1.9544248
C           3.9516516     0.0068957     1.0000170
N           4.4143458     0.8681308     0.0334389
C           3.8162258     1.2713495    -1.2341534
H           3.6836323     0.4069676    -1.8891494
H           4.4933812     1.9799602    -1.7155546
H           2.8532582     1.7631461    -1.0786083
C           5.6900299     1.2451801     0.4248490
H           6.2797579     1.9228365    -0.1745600
