26
231_C9H13N3O_1-0-5-7 (-165,) energy =    -590.2450428
C           0.8905362    -0.6901936    -1.1689928
C          -0.3724141    -0.0381312    -1.7131538
H          -0.7698768    -0.6565178    -2.5205992
H          -0.1135167     0.9405281    -2.1345479
H          -1.1449020     0.1086379    -0.9513633
N           1.1084858    -0.4938394     0.1716005
H           0.5128359     0.1801878     0.6377619
C           2.3735889    -0.7436219     0.8346869
C           2.8137875    -2.1868712     0.9442494
H           3.8802259    -2.3876756     0.9077463
H           2.1981107    -2.9226987     0.4393107
C           2.2616617    -1.4838261     2.1515800
H           1.2606290    -1.7472322     2.4803269
H           2.9400940    -1.1795161     2.9412346
O           1.6517625    -1.3249071    -1.8915146
C           4.4073011     2.2021486     1.1470854
H           4.6441811     3.1321231     1.6470187
N           3.3839213     1.3968020     1.5776132
C           3.3745534     0.3597579     0.7528515
N           4.3546436     0.4712486    -0.2063170
C           4.6994707    -0.4766793    -1.2614517
H           3.8085073    -1.0316327    -1.5587112
H           5.4791413    -1.1695258    -0.9236353
H           5.0748692     0.0788453    -2.1247959
C           5.0223951     1.6491597     0.0512199
H           5.8558064     1.9685386    -0.5576731
26
231_C9H13N3O_1-0-5-7 (-150,) energy =    -590.2430052
C           0.8866534    -0.7106786    -1.1331007
C          -0.2440157     0.1452440    -1.6826177
H          -0.6013848    -0.2852175    -2.6199347
H           0.1517089     1.1464719    -1.8923201
H          -1.0814324     0.2507309    -0.9845352
N           1.0558875    -0.6423768     0.2341057
H           0.4831569     0.0540863     0.6995399
C           2.3513726    -0.8190493     0.8699415
C           2.8584161    -2.2380336     1.0021769
H           3.9314314    -2.3959887     0.9507150
H           2.2641970    -3.0103432     0.5268022
C           2.3002714    -1.5315333     2.2048946
H           1.3187531    -1.8286149     2.5621126
H           2.9828082    -1.1810625     2.9716273
O           1.6230059    -1.3594300    -1.8665172
C           4.2219348     2.2441520     1.0204342
H           4.4042134     3.2129386     1.4666483
N           3.2390942     1.4112817     1.4908489
C           3.2942946     0.3278605     0.7297148
N           4.2758185     0.4364135    -0.2286411
C           4.6741014    -0.5460205    -1.2322786
H           3.8080357    -1.1422630    -1.5218098
H           5.4693789    -1.1960836    -0.8492207
H           5.0478350    -0.0166474    -2.1124061
C           4.8767875     1.6619658    -0.0366339
H           5.6969453     1.9904507    -0.6584817
26
231_C9H13N3O_1-0-5-7 (-135,) energy =    -590.2389735
C           0.8924523    -0.7459450    -1.1051774
C          -0.0570878     0.3135775    -1.6402810
H          -0.3568745     0.0590014    -2.6583217
H           0.4812093     1.2691935    -1.6592483
H          -0.9487783     0.4446258    -1.0167758
N           1.0269876    -0.7769117     0.2760584
H           0.4738749    -0.0656887     0.7465917
C           2.3402849    -0.8914638     0.8997905
C           2.9067902    -2.2867415     1.0473801
H           3.9848587    -2.4031272     0.9901348
H           2.3381062    -3.0885058     0.5899650
C           2.3316013    -1.5838856     2.2447636
H           1.3660095    -1.9141638     2.6156224
H           3.0070245    -1.1953497     2.9994299
O           1.5687421    -1.4433099    -1.8490126
C           4.0891302     2.2461835     0.9535992
H           4.2375269     3.2326491     1.3727493
N           3.1461990     1.3872686     1.4579850
C           3.2355755     0.2875119     0.7241016
N           4.1985966     0.4114222    -0.2518678
C           4.6293647    -0.5823309    -1.2307777
H           3.7859181    -1.2175303    -1.5032193
H           5.4478899    -1.1937645    -0.8337129
H           4.9816465    -0.0632188    -2.1256343
C           4.7529736     1.6641262    -0.0979320
H           5.5515771     2.0091120    -0.7386084
26
231_C9H13N3O_1-0-5-7 (-120,) energy =    -590.2333067
C           0.8964241    -0.7652049    -1.1205440
C           0.1538054     0.4649474    -1.6139029
H          -0.0928963     0.3534139    -2.6711553
H           0.8238105     1.3245808    -1.4886634
H          -0.7589004     0.6733634    -1.0434366
N           0.9998513    -0.8945289     0.2686819
H           0.4478119    -0.1867847     0.7490761
C           2.3262228    -0.9396408     0.8846516
C           2.9516858    -2.3075597     1.0538237
H           4.0334954    -2.3826820     0.9964555
H           2.4123274    -3.1391049     0.6143190
C           2.3527514    -1.6060764     2.2410245
H           1.4030642    -1.9685098     2.6225284
H           3.0155898    -1.1770747     2.9849621
O           1.4946031    -1.5074227    -1.8845631
C           3.9531996     2.2646879     0.8358024
H           4.0654000     3.2689659     1.2226016
N           3.0444756     1.3872861     1.3708677
C           3.1741007     0.2679830     0.6734777
N           4.1292496     0.3973504    -0.3102453
C           4.5904615    -0.6082979    -1.2628319
H           3.7677102    -1.2751552    -1.5222092
H           5.4244218    -1.1869475    -0.8495194
H           4.9299140    -0.1020721    -2.1697957
C           4.6358512     1.6748695    -0.1991623
H           5.4185617     2.0294569    -0.8540148
26
231_C9H13N3O_1-0-5-7 (-105,) energy =    -590.2265508
C           0.9215343    -0.8342561    -1.0900169
C           0.4177352     0.5256109    -1.5415733
H           0.2404325     0.5219467    -2.6184846
H           1.1939321     1.2615927    -1.2986708
H          -0.4956543     0.8365512    -1.0201471
N           1.0024564    -1.0377165     0.3061080
H           0.4481983    -0.3312241     0.7896962
C           2.3380521    -1.0115176     0.9149834
C           3.0161155    -2.3525123     1.1018396
H           4.0999575    -2.3904225     1.0438270
H           2.5037165    -3.2093713     0.6787638
C           2.3952742    -1.6538005     2.2803718
H           1.4610333    -2.0455803     2.6705227
H           3.0448755    -1.1893223     3.0147565
O           1.3988262    -1.6380722    -1.8724915
C           3.8559781     2.2448667     0.7762479
H           3.9400929     3.2608862     1.1386680
N           2.9864413     1.3492958     1.3460659
C           3.1439670     0.2186717     0.6735168
N           4.0777624     0.3585415    -0.3301920
C           4.5577706    -0.6512832    -1.2689161
H           3.7552832    -1.3500642    -1.5061373
H           5.4132867    -1.1971573    -0.8555138
H           4.8701692    -0.1534700    -2.1900347
C           4.5423534     1.6549454    -0.2561420
H           5.3019059     2.0209792    -0.9316294
26
231_C9H13N3O_1-0-5-7 (-90,) energy =    -590.2234191
C           1.1264015    -1.0935223    -1.5080644
C           2.1746170    -1.6173292    -2.4600395
H           3.1639379    -1.6491904    -1.9902700
H           2.2376480    -0.9252453    -3.3077503
H           1.8957850    -2.6109229    -2.8146313
N           1.4433097     0.1664622    -0.8906049
H           0.5311261     0.5687881    -0.6697454
C           2.1777466     0.0559720     0.3898335
C           1.5969774    -0.7604925     1.5195199
H           2.2984859    -1.2998969     2.1465135
H           0.6645665    -1.2770255     1.3124518
C           1.5633073     0.7455184     1.5936290
H           0.6077498     1.2484562     1.4582124
H           2.2375886     1.2468326     2.2820448
O           0.0168027    -1.5771708    -1.4007466
C           5.7411784    -0.4631794     0.3402140
H           6.6130217    -1.0605336     0.5711164
N           4.4757658    -0.8855419     0.6686925
C           3.6600131     0.0657641     0.2433481
N           4.3541426     1.0885707    -0.3603736
C           3.8107146     2.3318787    -0.8880593
H           3.6204455     3.0522182    -0.0840092
H           2.8774766     2.1216786    -1.4131676
H           4.5302552     2.7659478    -1.5862701
C           5.6903719     0.7510803    -0.2963621
H           6.4549437     1.3931259    -0.7093697
26
231_C9H13N3O_1-0-5-7 (-75,) energy =    -590.2288804
C           1.0209262    -0.9720916    -1.5483112
C           2.1235580    -1.7061464    -2.2776252
H           3.0043567    -1.8621566    -1.6457500
H           2.4342970    -1.0872430    -3.1274588
H           1.7489537    -2.6633123    -2.6439781
N           1.4216013     0.2155883    -0.8751221
H           0.5571668     0.7183402    -0.6753051
C           2.1729403     0.0540519     0.3835281
C           1.6151436    -0.8257467     1.4784708
H           2.3322401    -1.3868758     2.0673682
H           0.6843951    -1.3416777     1.2609349
C           1.5625787     0.6724459     1.6289628
H           0.5977490     1.1656813     1.5289394
H           2.2382614     1.1481383     2.3338061
O          -0.1590222    -1.2428041    -1.6749884
C           5.7434230    -0.4179122     0.3265117
H           6.6222048    -1.0080253     0.5494178
N           4.4825947    -0.8601254     0.6464818
C           3.6554288     0.0870253     0.2336220
N           4.3377874     1.1273356    -0.3519697
C           3.7827196     2.3721047    -0.8640446
H           3.5539505     3.0673469    -0.0480375
H           2.8696163     2.1589958    -1.4222967
H           4.5132493     2.8385832    -1.5288791
C           5.6784358     0.8048242    -0.2914270
H           6.4353135     1.4624275    -0.6938824
26
231_C9H13N3O_1-0-5-7 (-60,) energy =    -590.2335677
C           0.9967513    -0.8793899    -1.6469041
C           2.1009409    -1.7811151    -2.1568284
H           2.8298773    -2.0356853    -1.3809335
H           2.6400273    -1.2455351    -2.9471343
H           1.6611761    -2.6880740    -2.5747703
N           1.4150040     0.2392637    -0.8975320
H           0.5934478     0.8187424    -0.7370484
C           2.1779167     0.0489038     0.3408565
C           1.6402674    -0.8757822     1.4104281
H           2.3704972    -1.4435274     1.9762083
H           0.7170082    -1.3999093     1.1808565
C           1.5637745     0.6141559     1.6107075
H           0.5904100     1.0938824     1.5303617
H           2.2352882     1.0770160     2.3278473
O          -0.1657908    -0.9855801    -1.9972536
C           5.7542759    -0.3744438     0.2747278
H           6.6400115    -0.9573069     0.4888226
N           4.4988214    -0.8375429     0.5859297
C           3.6600979     0.1059030     0.1891267
N           4.3293813     1.1631893    -0.3804973
C           3.7601679     2.4091968    -0.8731593
H           3.5021808     3.0798577    -0.0454126
H           2.8626457     2.1953162    -1.4559855
H           4.4943896     2.9055058    -1.5116290
C           5.6743368     0.8567891    -0.3238458
H           6.4230033     1.5299688    -0.7157218
26
231_C9H13N3O_1-0-5-7 (-45,) energy =    -590.2369061
C           0.9336863    -0.7440295    -1.5159310
C           1.9474562    -1.8169012    -1.8610365
H           2.5493932    -2.1335953    -1.0048844
H           2.6373935    -1.4101126    -2.6102388
H           1.4237793    -2.6703510    -2.2949225
N           1.3784849     0.2876093    -0.6829044
H           0.6296826     0.9632069    -0.5583684
C           2.1688293     0.0556369     0.5207265
C           1.6408630    -0.8754608     1.5899742
H           2.3750151    -1.4667423     2.1258574
H           0.7016474    -1.3773929     1.3769569
C           1.6004694     0.6111611     1.8176755
H           0.6349600     1.1104010     1.7700378
H           2.3003085     1.0474884     2.5241629
O          -0.1653170    -0.6757605    -2.0428620
C           5.7332015    -0.4318227     0.3434447
H           6.6156759    -1.0294281     0.5281631
N           4.4808310    -0.8751275     0.6935986
C           3.6471151     0.0858891     0.3313627
N           4.3158647     1.1400571    -0.2437034
C           3.7431353     2.3762015    -0.7558498
H           3.1293632     2.8588628     0.0110566
H           3.1193544     2.1819843    -1.6320985
H           4.5556282     3.0524939    -1.0289132
C           5.6558164     0.8066339    -0.2406631
H           6.4033892     1.4712292    -0.6487961
26
231_C9H13N3O_1-0-5-7 (-30,) energy =    -590.2389478
C           0.9780330    -0.6462300    -1.5376722
C           1.9320997    -1.8047167    -1.7574310
H           2.3254851    -2.2198683    -0.8257959
H           2.7918177    -1.4546364    -2.3412353
H           1.4119864    -2.5758589    -2.3278121
N           1.3552382     0.3057619    -0.5977552
H           0.6533327     1.0330704    -0.5105435
C           2.1683874     0.0573061     0.5779912
C           1.6584171    -0.8901612     1.6436395
H           2.4030785    -1.4872297     2.1581681
H           0.7169789    -1.3894814     1.4353700
C           1.6204148     0.5919951     1.8933702
H           0.6539715     1.0909211     1.8674152
H           2.3319759     1.0186995     2.5938163
O          -0.0238973    -0.4740990    -2.2158910
C           5.7331476    -0.4158979     0.3691245
H           6.6207928    -1.0037506     0.5603230
N           4.4870328    -0.8560186     0.7445263
C           3.6441303     0.0899589     0.3655529
N           4.3013088     1.1335183    -0.2425974
C           3.7217668     2.3547961    -0.7820368
H           3.0269685     2.7941361    -0.0606663
H           3.1823913     2.1595051    -1.7130122
H           4.5250214     3.0700837    -0.9709989
C           5.6430242     0.8061802    -0.2464216
H           6.3825895     1.4632706    -0.6804799
26
231_C9H13N3O_1-0-5-7 (-15,) energy =    -590.2400301
C           1.0699338    -0.7752294    -1.5323869
C           1.8559237    -2.0730174    -1.5606299
H           1.4974480    -2.7481374    -0.7742210
H           2.9252470    -1.9222115    -1.3903430
H           1.6865355    -2.5484985    -2.5279230
N           1.4394738     0.1622086    -0.5823665
H           0.8346771     0.9755476    -0.5886565
C           2.2783185    -0.0497711     0.5764895
C           1.8225454    -1.0162345     1.6482640
H           2.5992002    -1.5859347     2.1460843
H           0.8970858    -1.5507401     1.4586677
C           1.7295687     0.4614701     1.9023280
H           0.7438041     0.9205469     1.8885197
H           2.4351348     0.9162627     2.5911242
O           0.1699978    -0.5252061    -2.3215371
C           5.8568679    -0.3848206     0.2930221
H           6.7688407    -0.9453785     0.4483226
N           4.6348669    -0.8839078     0.6748294
C           3.7506946     0.0433441     0.3457194
N           4.3586194     1.1315492    -0.2351543
C           3.7224909     2.3389572    -0.7391112
H           2.9820336     2.7017659    -0.0207532
H           3.2256958     2.1561517    -1.6966967
H           4.4844027     3.1104633    -0.8694683
C           5.7107215     0.8540000    -0.2762664
H           6.4174682     1.5529197    -0.6994826
26
231_C9H13N3O_1-0-5-7 (0,) energy =    -590.2407449
C           1.1396647    -0.7431646    -1.5887392
C           1.8265273    -2.0956832    -1.5324019
H           1.2992668    -2.7503419    -0.8277825
H           2.8667040    -2.0332666    -1.2015122
H           1.7697868    -2.5430106    -2.5259593
N           1.4085212     0.1413765    -0.5612986
H           0.9052938     1.0164282    -0.6471194
C           2.2713552    -0.0529722     0.5793717
C           1.8350242    -1.0211229     1.6574503
H           2.6220544    -1.5828028     2.1479336
H           0.9137255    -1.5645824     1.4749299
C           1.7311395     0.4554500     1.9102956
H           0.7421253     0.9068811     1.9032073
H           2.4403452     0.9163672     2.5912222
O           0.3716725    -0.4243457    -2.4860312
C           5.8476444    -0.3677885     0.2433304
H           6.7641052    -0.9256350     0.3808313
N           4.6333315    -0.8748269     0.6391615
C           3.7403952     0.0511315     0.3303767
N           4.3354846     1.1458784    -0.2516448
C           3.6869845     2.3541642    -0.7369626
H           2.9585659     2.7110741    -0.0032051
H           3.1759464     2.1767741    -1.6884576
H           4.4437127     3.1290697    -0.8763274
C           5.6882098     0.8746725    -0.3141044
H           6.3858185     1.5796877    -0.7423075
26
231_C9H13N3O_1-0-5-7 (15,) energy =    -590.2409090
C           1.2650808    -0.7182569    -1.6221104
C           1.8565302    -2.1110414    -1.5079368
H           1.2687979    -2.7108280    -0.8028740
H           2.8876733    -2.1001748    -1.1422726
H           1.8102650    -2.5790908    -2.4921558
N           1.4043588     0.1142089    -0.5248995
H           1.0120076     1.0352090    -0.6840499
C           2.2921282    -0.0626452     0.6002286
C           1.8742187    -1.0269143     1.6880266
H           2.6700021    -1.5816538     2.1721461
H           0.9539253    -1.5757305     1.5178238
C           1.7645570     0.4502806     1.9344011
H           0.7728523     0.8951800     1.9340522
H           2.4783202     0.9188268     2.6052941
O           0.6522779    -0.3327249    -2.6080235
C           5.8624937    -0.3694460     0.1942097
H           6.7817665    -0.9281214     0.3072907
N           4.6568103    -0.8811305     0.6100401
C           3.7570791     0.0474839     0.3299933
N           4.3403041     1.1488082    -0.2523507
C           3.6808681     2.3593948    -0.7166387
H           2.9447791     2.6919357     0.0207858
H           3.1788593     2.1974257    -1.6762427
H           4.4284571     3.1466520    -0.8348103
C           5.6913356     0.8786003    -0.3469394
H           6.3798680     1.5885680    -0.7815913
26
231_C9H13N3O_1-0-5-7 (30,) energy =    -590.2404307
C           1.3041386    -0.5964971    -1.5521924
C           1.7749360    -2.0371898    -1.4917082
H           1.0949127    -2.6262322    -0.8656901
H           2.7757619    -2.1269375    -1.0573726
H           1.7715963    -2.4405889    -2.5050560
N           1.3083520     0.1134181    -0.3595083
H           0.9976895     1.0689383    -0.5017012
C           2.2225476    -0.1084766     0.7402429
C           1.8134373    -1.1063305     1.8010649
H           2.6132318    -1.6812265     2.2539656
H           0.8868022    -1.6418967     1.6230679
C           1.7213441     0.3622137     2.0994089
H           0.7353816     0.8186466     2.1294159
H           2.4529590     0.7994219     2.7719909
O           0.8711317    -0.0769563    -2.5717726
C           5.7949495    -0.4068029     0.3580819
H           6.7202112    -0.9402788     0.5291327
N           4.5939397    -0.8884802     0.8199118
C           3.6832305    -0.0056624     0.4432463
N           4.2546098     1.0365432    -0.2509056
C           3.5935243     2.1961563    -0.8340058
H           2.9373838     2.6704536    -0.0975603
H           3.0067416     1.9192807    -1.7155707
H           4.3556410     2.9205264    -1.1281873
C           5.6099354     0.7748555    -0.3111458
H           6.2902924     1.4424240    -0.8195236
26
231_C9H13N3O_1-0-5-7 (45,) energy =    -590.2388722
C           1.4318119    -0.5830332    -1.5320381
C           1.7571287    -2.0628952    -1.4913449
H           0.9382421    -2.6013354    -1.0008316
H           2.6717375    -2.2673516    -0.9252515
H           1.8669443    -2.4237674    -2.5147953
N           1.3093959     0.0590689    -0.2997110
H           1.0505972     1.0304469    -0.4502682
C           2.2550712    -0.1397667     0.7857763
C           1.8802743    -1.1400651     1.8562899
H           2.6961371    -1.6986567     2.3007574
H           0.9605551    -1.6918191     1.6926144
C           1.7670510     0.3286485     2.1493514
H           0.7740141     0.7684058     2.1919495
H           2.5008286     0.7814936     2.8091459
O           1.1709585     0.0158749    -2.5660307
C           5.8208461    -0.4024472     0.3318436
H           6.7545289    -0.9266540     0.4850040
N           4.6344358    -0.8926666     0.8206995
C           3.7076921    -0.0198103     0.4592285
N           4.2547001     1.0241083    -0.2520578
C           3.5720829     2.1783951    -0.8229602
H           2.9350508     2.6535290    -0.0701946
H           2.9641704     1.8927427    -1.6873579
H           4.3229471     2.9046364    -1.1404020
C           5.6105257     0.7744711    -0.3385448
H           6.2738261     1.4456836    -0.8643201
26
231_C9H13N3O_1-0-5-7 (60,) energy =    -590.2356003
C           1.5317049    -0.5978287    -1.5583032
C           1.6798852    -2.1043987    -1.5354532
H           0.7271169    -2.5453980    -1.2216082
H           2.4473090    -2.4282266    -0.8245669
H           1.9327225    -2.4550156    -2.5370095
N           1.2842737     0.0135415    -0.3181438
H           1.0594497     0.9898616    -0.5012879
C           2.2444672    -0.1221118     0.7747677
C           1.8885771    -1.0867470     1.8826568
H           2.7130749    -1.6116238     2.3515896
H           0.9801535    -1.6626091     1.7402016
C           1.7456450     0.3910314     2.1165470
H           0.7437714     0.8116432     2.1404433
H           2.4683532     0.8843348     2.7595034
O           1.4586158     0.0504142    -2.5916479
C           5.8036890    -0.3797665     0.2812458
H           6.7374626    -0.9096646     0.4129157
N           4.6216686    -0.8796648     0.7694967
C           3.6938918     0.0049450     0.4397039
N           4.2374549     1.0666103    -0.2476365
C           3.5450617     2.2250574    -0.7976152
H           2.9029734     2.6786217    -0.0357353
H           2.9420092     1.9454403    -1.6674380
H           4.2889480     2.9646042    -1.1006021
C           5.5906127     0.8159661    -0.3553070
H           6.2507654     1.4992271    -0.8694643
26
231_C9H13N3O_1-0-5-7 (75,) energy =    -590.2306228
C           1.6507901    -0.6715163    -1.5534935
C           1.5495257    -2.1802007    -1.5741665
H           0.4858933    -2.4411072    -1.5255617
H           2.0446011    -2.6378977    -0.7121171
H           1.9749550    -2.5697146    -2.5004018
N           1.3535467    -0.0599559    -0.3114486
H           1.1631170     0.9202101    -0.5197661
C           2.3445937    -0.1407271     0.7672417
C           2.0395938    -1.1005434     1.8943237
H           2.8882845    -1.5888998     2.3593618
H           1.1490760    -1.7087613     1.7750364
C           1.8467956     0.3752244     2.1077309
H           0.8305837     0.7591807     2.1393133
H           2.5596776     0.9039315     2.7334314
O           1.7577635    -0.0025134    -2.5682986
C           5.9031912    -0.2938037     0.2295058
H           6.8530587    -0.7984608     0.3447272
N           4.7408078    -0.8334083     0.7209474
C           3.7851268     0.0292382     0.4122887
N           4.2928180     1.1160372    -0.2630254
C           3.5628682     2.2629658    -0.7869149
H           2.8945801     2.6661863    -0.0192062
H           2.9823121     1.9824021    -1.6713780
H           4.2800924     3.0408335    -1.0566694
C           5.6504406     0.9046249    -0.3879365
H           6.2861508     1.6132160    -0.8986258
26
231_C9H13N3O_1-0-5-7 (90,) energy =    -590.2245191
C           1.7209297    -0.7855519    -1.5401523
C           1.3256962    -2.2420293    -1.6050699
H           0.2341875    -2.2782925    -1.7025872
H           1.5910711    -2.7791463    -0.6889485
H           1.7836092    -2.7230243    -2.4711068
N           1.3726652    -0.1204623    -0.3218753
H           1.2439136     0.8560705    -0.5924329
C           2.3709468    -0.1496473     0.7592543
C           2.0863732    -1.1032523     1.8962235
H           2.9448439    -1.5628328     2.3722323
H           1.2126983    -1.7363548     1.7816439
C           1.8507231     0.3695779     2.0898392
H           0.8239645     0.7246945     2.1088892
H           2.5446369     0.9250468     2.7138007
O           2.0831752    -0.1568412    -2.5181139
C           5.9375730    -0.2173030     0.2548605
H           6.8970186    -0.7028122     0.3733127
N           4.7811092    -0.7913693     0.7198525
C           3.8102304     0.0562572     0.4162655
N           4.3041354     1.1691359    -0.2255653
C           3.5544135     2.3003264    -0.7524667
H           2.8433407     2.6626415    -0.0029673
H           3.0201383     2.0141659    -1.6635647
H           4.2516459     3.1094940    -0.9796461
C           5.6668924     0.9889202    -0.3393214
H           6.2931547     1.7213491    -0.8276016
26
231_C9H13N3O_1-0-5-7 (105,) energy =    -590.2247352
C           0.9401866    -0.7443622    -1.3323912
C          -0.5559379    -0.9319501    -1.1362579
H          -0.6919160    -1.5534573    -0.2421718
H          -0.9880584    -1.4500352    -1.9944960
H          -1.0924728     0.0087957    -0.9659347
N           1.5813176     0.1643895    -0.4720702
H           0.9233578     0.8457275    -0.0993878
C           2.4271279    -0.3058671     0.6332027
C           2.4855922    -1.7879180     0.9550706
H           3.4502176    -2.1792779     1.2636096
H           1.9052371    -2.4702166     0.3418043
C           1.7696738    -0.8425601     1.8834312
H           0.6828818    -0.8701991     1.8926186
H           2.2324334    -0.5724679     2.8263918
O           1.5811501    -1.4765094    -2.0676124
C           5.2185146     1.6927376     1.7110067
H           5.7444171     2.2434545     2.4795502
N           4.0197211     1.0727746     1.9671916
C           3.6641810     0.5027563     0.8273710
N           4.5932266     0.7260060    -0.1603083
C           4.5692617     0.2723801    -1.5463426
H           3.7854990    -0.4718529    -1.6860001
H           5.5372676    -0.1699877    -1.8011094
H           4.3722007     1.1120868    -2.2215755
C           5.5879658     1.4974737     0.4045678
H           6.4429006     1.8237830    -0.1700351
26
231_C9H13N3O_1-0-5-7 (120,) energy =    -590.2317402
C           0.9647002    -0.7523281    -1.2618067
C          -0.5548627    -0.8184869    -1.2676694
H          -0.8629444    -1.4448640    -0.4212472
H          -0.9048945    -1.2816467    -2.1919967
H          -1.0317629     0.1610216    -1.1454292
N           1.5331859     0.1232710    -0.3389464
H           0.8616213     0.7839729     0.0415300
C           2.4492972    -0.3195284     0.7133431
C           2.5440556    -1.7986853     1.0384457
H           3.5273105    -2.1718649     1.3083701
H           1.9521893    -2.4887118     0.4462473
C           1.8506303    -0.8633003     1.9913588
H           0.7655189    -0.9075749     2.0405638
H           2.3448978    -0.5805274     2.9143047
O           1.6411988    -1.5349110    -1.9127543
C           5.2281100     1.7548118     1.6770728
H           5.7655439     2.3274897     2.4212290
N           4.0525143     1.1115559     1.9786793
C           3.6747972     0.5172589     0.8582846
N           4.5678807     0.7473330    -0.1604871
C           4.5074078     0.2759535    -1.5391466
H           3.7560921    -0.5084537    -1.6364342
H           5.4838825    -0.1236715    -1.8294062
H           4.2437679     1.0965991    -2.2154045
C           5.5612663     1.5493395     0.3624381
H           6.3906674     1.8858939    -0.2428236
26
231_C9H13N3O_1-0-5-7 (135,) energy =    -590.2375677
C           0.9470829    -0.7748285    -1.2395325
C          -0.5601286    -0.7133120    -1.4400099
H          -1.0274417    -1.3836240    -0.7083136
H          -0.8122874    -1.0649673    -2.4420890
H          -0.9762542     0.2894239    -1.2897930
N           1.4449648     0.0380772    -0.2369822
H           0.7645839     0.6818424     0.1525666
C           2.4286581    -0.3871310     0.7523134
C           2.5785856    -1.8679912     1.0452568
H           3.5831903    -2.2174670     1.2632751
H           1.9793226    -2.5597376     0.4635953
C           1.9027383    -0.9715034     2.0455485
H           0.8225324    -1.0479633     2.1391987
H           2.4272331    -0.6892734     2.9516928
O           1.6440160    -1.5791933    -1.8450951
C           5.1434968     1.8043044     1.6365748
H           5.6659916     2.4136574     2.3620096
N           3.9964695     1.1248727     1.9668978
C           3.6293204     0.4909317     0.8648545
N           4.5003440     0.7340992    -0.1702238
C           4.4509533     0.2145984    -1.5315369
H           3.6921140    -0.5654359    -1.6086074
H           5.4255919    -0.2056059    -1.7987557
H           4.2041752     1.0142115    -2.2387768
C           5.4695862     1.5828840     0.3226350
H           6.2796441     1.9355454    -0.2994999
26
231_C9H13N3O_1-0-5-7 (150,) energy =    -590.2417310
C           0.9397691    -0.8128063    -1.1992620
C          -0.5224518    -0.6066548    -1.5699241
H          -1.1326463    -1.3013587    -0.9803512
H          -0.6632030    -0.8412870    -2.6266792
H          -0.8796913     0.4099535    -1.3716120
N           1.3748161    -0.0678038    -0.1276040
H           0.7055868     0.5908565     0.2526975
C           2.4209991    -0.4550978     0.8038905
C           2.6259228    -1.9318325     1.0837021
H           3.6489319    -2.2538767     1.2534874
H           2.0209127    -2.6340093     0.5215097
C           1.9715861    -1.0605610     2.1178814
H           0.8995732    -1.1666346     2.2607505
H           2.5295925    -0.7663412     2.9997402
O           1.6384269    -1.6435575    -1.7692311
C           5.0596879     1.8672308     1.5811182
H           5.5642881     2.5229525     2.2783048
N           3.9413309     1.1585307     1.9450733
C           3.5919446     0.4675176     0.8714186
N           4.4486177     0.7023404    -0.1780657
C           4.4068434     0.1362828    -1.5207045
H           3.6709488    -0.6681046    -1.5654116
H           5.3920674    -0.2626261    -1.7817884
H           4.1314848     0.9041196    -2.2523196
C           5.3871578     1.6056583     0.2747832
H           6.1804630     1.9632252    -0.3658664
26
231_C9H13N3O_1-0-5-7 (165,) energy =    -590.2442013
C           0.8252006    -0.6889618    -1.1215139
C          -0.6185582    -0.4160187    -1.5211730
H          -1.2405982    -1.2553017    -1.1888265
H          -0.6820451    -0.3621256    -2.6099922
H          -1.0243041     0.5038803    -1.0871079
N           1.2047524    -0.1356872     0.0716501
H           0.5556261     0.4889082     0.5322679
C           2.3902474    -0.4757091     0.8332960
C           2.7222519    -1.9440117     0.9964002
H           3.7750325    -2.2089181     1.0253855
H           2.0957100    -2.6531491     0.4674834
C           2.1453226    -1.1786677     2.1532062
H           1.1093838    -1.3694672     2.4191443
H           2.7880526    -0.8960644     2.9796119
O           1.5531226    -1.4105671    -1.7969046
C           4.7464561     2.1923647     1.3522262
H           5.1269707     3.0105734     1.9493705
N           3.6787637     1.4372126     1.7683397
C           3.4842519     0.5393215     0.8144379
N           4.3875187     0.6915324    -0.2115931
C           4.5420353    -0.1301523    -1.4072145
H           3.6364478    -0.7159314    -1.5754773
H           5.3997286    -0.8046261    -1.3017148
H           4.7093929     0.5177476    -2.2726971
C           5.1997747     1.7498847     0.1344740
H           6.0060281     2.0749402    -0.5072973
26
231_C9H13N3O_1-0-5-7 (180,) energy =    -590.2452559
C           0.8993798    -0.7172045    -1.0864877
C          -0.4628443    -0.2943581    -1.6192990
H          -1.0551630    -1.1932268    -1.8196912
H          -0.3226300     0.2230501    -2.5725924
H          -1.0251839     0.3525695    -0.9389150
N           1.1454846    -0.3733163     0.2144344
H           0.5001853     0.2584052     0.6703248
C           2.3632650    -0.6632016     0.9433425
C           2.7727799    -2.1158934     1.0489787
H           3.8369966    -2.3313745     1.0607125
H           2.1741665    -2.8334822     0.4994532
C           2.1706741    -1.4245078     2.2390763
H           1.1497583    -1.6773588     2.5103526
H           2.8106687    -1.1424650     3.0679872
O           1.6843595    -1.3572260    -1.7803322
C           4.4785697     2.1964246     1.4631653
H           4.7455596     3.0788946     2.0295738
N           3.4352693     1.3898506     1.8414099
C           3.3909329     0.4187883     0.9413342
N           4.3673598     0.5742065    -0.0150999
C           4.6841786    -0.3081158    -1.1337379
H           3.7923194    -0.8643307    -1.4275385
H           5.4857007    -1.0055826    -0.8630869
H           5.0183249     0.2980131    -1.9801763
C           5.0697249     1.7106580     0.3232411
H           5.9062173     2.0528573    -0.2688885
