23
303_C9H12O2_15-9-10-11 (-165,) energy =    -500.6039594
C           2.1755919    -2.6081001    -0.2146686
H           1.5301718    -2.1992729     0.5684008
H           2.9835028    -3.1930910     0.2456147
H           1.5903803    -3.2574237    -0.8705431
O           2.7027413    -1.5753979    -1.0498548
C           5.2939015     1.1941695     0.6698892
H           5.9710724     1.9253958     1.1028216
C           3.9562439     1.1763932     1.0714519
H           3.6039552     1.8901034     1.8077475
C           3.0794311     0.2403098     0.5158170
O           1.7481113     0.1533874     0.8233467
C           1.1524534     1.2395959     1.5145315
H           0.0800732     1.0346681     1.5269167
H           1.3382306     2.1907549     0.9993333
H           1.5140242     1.3143924     2.5490712
C           3.5558915    -0.6826381    -0.4395049
C           4.8964558    -0.6620881    -0.8442366
C           5.3771093    -1.6419001    -1.8873992
H           4.8210133    -1.5299181    -2.8248658
H           5.2355747    -2.6794584    -1.5628567
H           6.4407174    -1.4936573    -2.0978452
C           5.7574861     0.2900897    -0.2806297
H           6.7982354     0.3138033    -0.5931961
23
303_C9H12O2_15-9-10-11 (-150,) energy =    -500.6029024
C           2.1918049    -2.6281189    -0.1872743
H           1.5634459    -2.2395384     0.6194197
H           3.0094471    -3.2242111     0.2404032
H           1.5931619    -3.2607865    -0.8473176
O           2.7016585    -1.5741383    -1.0069095
C           5.3236945     1.1653970     0.7166805
H           6.0086454     1.8902176     1.1480733
C           4.0015432     1.1193017     1.1613639
H           3.6621649     1.8032799     1.9320406
C           3.1160393     0.1898831     0.6085754
O           1.7979357     0.0854590     0.9726375
C           1.1453202     1.2626654     1.4279014
H           0.0767521     1.0364705     1.4224449
H           1.3465830     2.1104153     0.7613143
H           1.4442196     1.5299902     2.4503980
C           3.5650153    -0.6943481    -0.3934794
C           4.8932847    -0.6492038    -0.8400994
C           5.3469778    -1.5897554    -1.9302680
H           4.7598307    -1.4518475    -2.8451067
H           5.2234324    -2.6384927    -1.6357262
H           6.4020080    -1.4256235    -2.1700899
C           5.7629517     0.2937228    -0.2763164
H           6.7923599     0.3378205    -0.6226656
23
303_C9H12O2_15-9-10-11 (-135,) energy =    -500.6016967
C           2.1787715    -2.6266627    -0.1489734
H           1.5764159    -2.2530399     0.6839425
H           3.0028410    -3.2397783     0.2405528
H           1.5574028    -3.2375234    -0.8085743
O           2.6753811    -1.5560104    -0.9554887
C           5.3517207     1.1322710     0.7686247
H           6.0518006     1.8423861     1.2001307
C           4.0453064     1.0700852     1.2523394
H           3.7261774     1.7232953     2.0583844
C           3.1419477     0.1594176     0.6977434
O           1.8390913     0.0467888     1.1239152
C           1.1199882     1.2591720     1.3213870
H           0.0699637     0.9754490     1.4240978
H           1.2372656     1.9321200     0.4631620
H           1.4331363     1.7826453     2.2342654
C           3.5563105    -0.6943966    -0.3422785
C           4.8721408    -0.6367870    -0.8285198
C           5.2918728    -1.5455367    -1.9584076
H           4.6736206    -1.3858004    -2.8488546
H           5.1818140    -2.6023192    -1.6880982
H           6.3376697    -1.3706458    -2.2291094
C           5.7576947     0.2896630    -0.2647244
H           6.7760015     0.3441001    -0.6413974
23
303_C9H12O2_15-9-10-11 (-120,) energy =    -500.6012494
C           2.1606864    -2.5999639    -0.1229875
H           1.5919646    -2.2463711     0.7413908
H           2.9893755    -3.2354919     0.2174937
H           1.5101993    -3.1806559    -0.7817681
O           2.6446874    -1.5083911    -0.9100897
C           5.3950602     1.0959813     0.8314087
H           6.1179650     1.7777842     1.2708490
C           4.1024999     1.0273418     1.3471792
H           3.8079239     1.6420546     2.1926576
C           3.1731973     0.1520728     0.7791268
O           1.8888037     0.0380168     1.2704597
C           1.0962319     1.2208530     1.2061208
H           0.1120777     0.9503170     1.5957328
H           0.9967429     1.5724974     0.1711975
H           1.5124758     2.0295291     1.8201166
C           3.5495956    -0.6735454    -0.2946050
C           4.8534560    -0.6112564    -0.8161926
C           5.2354498    -1.4874861    -1.9843676
H           4.5998128    -1.2906139    -2.8549994
H           5.1168362    -2.5510086    -1.7462026
H           6.2772252    -1.3173717    -2.2730080
C           5.7613043     0.2870193    -0.2446641
H           6.7700145     0.3445122    -0.6461225
23
303_C9H12O2_15-9-10-11 (-105,) energy =    -500.6015702
C           2.1666918    -2.5609995    -0.0977105
H           1.6498176    -2.2352118     0.8092402
H           3.0010528    -3.2223554     0.1719950
H           1.4733477    -3.1032912    -0.7453359
O           2.6282597    -1.4429100    -0.8621319
C           5.4583842     1.0659671     0.8945705
H           6.2011480     1.7228031     1.3387581
C           4.1749218     1.0014834     1.4333655
H           3.8966826     1.5918957     2.3017825
C           3.2237405     0.1565275     0.8581078
O           1.9531685     0.0566883     1.3924589
C           1.0920373     1.1493814     1.0751143
H           0.1432083     0.9513960     1.5795167
H           0.9243894     1.2175319    -0.0074719
H           1.5015105     2.1021872     1.4352586
C           3.5640570    -0.6420583    -0.2459258
C           4.8573125    -0.5836166    -0.7937487
C           5.2032773    -1.4315155    -1.9936457
H           4.5494090    -1.2052007    -2.8433407
H           5.0801097    -2.5000818    -1.7814519
H           6.2396898    -1.2637810    -2.3022221
C           5.7894879     0.2833714    -0.2126505
H           6.7911635     0.3370513    -0.6321146
23
303_C9H12O2_15-9-10-11 (-90,) energy =    -500.6022129
C           2.1687994    -2.5069837    -0.0693150
H           1.7157589    -2.2123869     0.8816666
H           3.0058559    -3.1924008     0.1190686
H           1.4263781    -3.0093209    -0.6942985
O           2.6033868    -1.3631410    -0.8123395
C           5.5316018     1.0341250     0.9404686
H           6.2985318     1.6622531     1.3850779
C           4.2559961     0.9908657     1.5012257
H           4.0019224     1.5683643     2.3853691
C           3.2754109     0.1829341     0.9247968
O           2.0180529     0.1088743     1.4937128
C           1.0830832     1.0445751     0.9539156
H           0.1457726     0.8914901     1.4944130
H           0.9223350     0.8684646    -0.1167816
H           1.4253933     2.0770719     1.1041548
C           3.5756542    -0.5978863    -0.2034315
C           4.8567535    -0.5562423    -0.7778935
C           5.1593963    -1.3837808    -2.0036058
H           4.4700830    -1.1499502    -2.8223353
H           5.0534768    -2.4566645    -1.8026344
H           6.1816047    -1.2047041    -2.3506969
C           5.8214131     0.2724779    -0.1923553
H           6.8159420     0.3123341    -0.6300353
23
303_C9H12O2_15-9-10-11 (-75,) energy =    -500.6027743
C           2.1503967    -2.4347442    -0.0357995
H           1.7245230    -2.1442593     0.9293385
H           2.9832824    -3.1312810     0.1270317
H           1.3872121    -2.9218712    -0.6474947
O           2.5830505    -1.2888382    -0.7780410
C           5.5968680     0.9970446     0.9813942
H           6.3878628     1.5908696     1.4309880
C           4.3260590     0.9819717     1.5544076
H           4.0962531     1.5515897     2.4498678
C           3.3125279     0.2200695     0.9722916
O           2.0657171     0.1939370     1.5651703
C           1.0611627     0.9266523     0.8568274
H           0.1429952     0.8290754     1.4411478
H           0.9056148     0.5186557    -0.1477245
H           1.3335862     1.9876788     0.7825967
C           3.5791594    -0.5459153    -0.1756258
C           4.8517551    -0.5245892    -0.7684682
C           5.1146062    -1.3322400    -2.0165734
H           4.4275718    -1.0542856    -2.8234626
H           4.9726382    -2.4053318    -1.8410265
H           6.1395193    -1.1803383    -2.3685300
C           5.8491200     0.2591013    -0.1754921
H           6.8385231     0.2806232    -0.6257943
23
303_C9H12O2_15-9-10-11 (-60,) energy =    -500.6023909
C           2.1425587    -2.3691364    -0.0187880
H           1.7282343    -2.0797732     0.9527872
H           2.9779410    -3.0640196     0.1365695
H           1.3718735    -2.8578463    -0.6196774
O           2.5662090    -1.2237266    -0.7665413
C           5.6485096     0.9501679     1.0203382
H           6.4598535     1.5058393     1.4823261
C           4.3779787     0.9730313     1.5908846
H           4.1664033     1.5407669     2.4917881
C           3.3315784     0.2635343     0.9967175
O           2.0943139     0.3171224     1.6010076
C           1.0241165     0.8290511     0.7990815
H           0.1404528     0.8232933     1.4414061
H           0.8481713     0.2131611    -0.0867655
H           1.2379081     1.8597913     0.4870479
C           3.5739710    -0.4907701    -0.1657229
C           4.8462531    -0.5000072    -0.7606256
C           5.0793854    -1.2965438    -2.0219873
H           4.3958715    -0.9889544    -2.8209933
H           4.9098958    -2.3679663    -1.8609915
H           6.1061120    -1.1670860    -2.3775446
C           5.8732692     0.2328781    -0.1552312
H           6.8618454     0.2283531    -0.6075704
23
303_C9H12O2_15-9-10-11 (-45,) energy =    -500.6011110
C           2.1780507    -2.3287814    -0.0637986
H           1.8084424    -2.1223001     0.9482369
H           3.0400142    -3.0051426     0.0029896
H           1.3893234    -2.8032942    -0.6529973
O           2.5236472    -1.1219181    -0.7483886
C           5.6809888     0.9111692     1.0723133
H           6.5102648     1.4274217     1.5480975
C           4.4087824     0.9866659     1.6305089
H           4.2133648     1.5586983     2.5322275
C           3.3332432     0.3317865     1.0203751
O           2.1084526     0.4674898     1.6256700
C           0.9678401     0.7385351     0.8074228
H           0.2213555     1.1696214     1.4796000
H           0.5644228    -0.1635200     0.3408884
H           1.2122230     1.4633084     0.0220209
C           3.5562288    -0.4214217    -0.1461464
C           4.8327999    -0.4791411    -0.7308598
C           5.0397302    -1.2703161    -2.0004573
H           4.3659843    -0.9327843    -2.7955621
H           4.8382042    -2.3381660    -1.8518603
H           6.0700221    -1.1697011    -2.3549478
C           5.8865965     0.1996907    -0.1111360
H           6.8775737     0.1581793    -0.5560117
23
303_C9H12O2_15-9-10-11 (-30,) energy =    -500.5999025
C           2.1334664    -2.2585152    -0.1709972
H           1.8201755    -2.1629260     0.8770646
H           3.0094416    -2.9181714    -0.2177496
H           1.3198496    -2.6947186    -0.7562886
O           2.4108525    -0.9826466    -0.7493501
C           5.6289939     0.9339691     1.0983954
H           6.4716775     1.4196919     1.5827976
C           4.3529415     1.0782266     1.6292538
H           4.1684265     1.6753546     2.5168298
C           3.2537272     0.4648035     1.0123885
O           2.0432294     0.7020549     1.6053273
C           0.8447495     0.7310909     0.8309758
H           0.1302788     1.3010284     1.4312368
H           0.4430619    -0.2691556     0.6471265
H           0.9999876     1.2342191    -0.1288622
C           3.4647200    -0.3171811    -0.1384013
C           4.7495812    -0.4400462    -0.6978844
C           4.9434217    -1.2494918    -1.9586067
H           4.2310381    -0.9530711    -2.7354202
H           4.7920366    -2.3224859    -1.7849532
H           5.9574503    -1.1184562    -2.3482540
C           5.8241723     0.1957796    -0.0707019
H           6.8189586     0.1044802    -0.4990877
23
303_C9H12O2_15-9-10-11 (-15,) energy =    -500.5987189
C           2.1688583    -2.2305406    -0.3073473
H           1.9018350    -2.2406043     0.7581341
H           3.0391824    -2.8814544    -0.4565424
H           1.3294945    -2.6103299    -0.8957029
O           2.4180826    -0.9033180    -0.7679161
C           5.6844059     0.9189722     1.1019871
H           6.5357388     1.3848563     1.5907575
C           4.4052413     1.1342823     1.5967230
H           4.2276801     1.7675544     2.4603050
C           3.2897885     0.5494043     0.9777914
O           2.0944357     0.8886907     1.5460588
C           0.8476321     0.6885262     0.8860818
H           0.1293415     1.2788521     1.4612553
H           0.5362841    -0.3606616     0.8970042
H           0.8724129     1.0443290    -0.1476929
C           3.4911685    -0.2803215    -0.1431847
C           4.7843137    -0.4729190    -0.6676010
C           4.9795703    -1.3174770    -1.9055781
H           4.1763925    -1.1513172    -2.6295151
H           4.9877985    -2.3912140    -1.6748907
H           5.9357757    -1.0826734    -2.3832143
C           5.8728265     0.1339656    -0.0367272
H           6.8707195    -0.0107965    -0.4425834
23
303_C9H12O2_15-9-10-11 (0,) energy =    -500.5978746
C           2.1435016    -2.1542324    -0.4408120
H           1.9246532    -2.2391696     0.6322074
H           2.9868880    -2.8130777    -0.6794449
H           1.2685570    -2.4690312    -1.0155311
O           2.4040477    -0.8019045    -0.8124131
C           5.6921399     0.9473176     1.0961227
H           6.5461463     1.4007060     1.5918997
C           4.4091909     1.2212475     1.5488030
H           4.2313673     1.8877051     2.3869372
C           3.2882697     0.6532556     0.9228784
O           2.0998515     1.0706860     1.4501923
C           0.8310698     0.6613751     0.9511461
H           0.1064824     1.2412570     1.5287100
H           0.6468485    -0.4051000     1.1217480
H           0.7168882     0.8814285    -0.1129160
C           3.4881376    -0.2216131    -0.1653375
C           4.7886435    -0.4747818    -0.6468395
C           4.9947275    -1.3522891    -1.8603894
H           4.1650159    -1.2530533    -2.5660770
H           5.0726934    -2.4149289    -1.5934329
H           5.9228822    -1.0823522    -2.3738774
C           5.8817181     0.1138091    -0.0066484
H           6.8834843    -0.0777850    -0.3825486
23
303_C9H12O2_15-9-10-11 (15,) energy =    -500.5987189
C           1.8066116    -1.2801207    -1.3360531
H           2.4828760    -1.3003977    -2.1995747
H           1.2479136    -0.3344409    -1.3501734
H           1.1064883    -2.1166465    -1.4066652
O           2.5141392    -1.4471993    -0.1083528
C           5.4500469     1.4619708     0.5269808
H           6.2125461     2.2200827     0.6837512
C           4.1838092     1.6382846     1.0682158
H           3.9330625     2.5153298     1.6566470
C           3.1851632     0.6694096     0.8854542
O           2.0068249     0.9568142     1.5146075
C           0.9989219    -0.0247397     1.7400752
H           0.3229475     0.4313760     2.4682699
H           1.4149363    -0.9483101     2.1522040
H           0.4371387    -0.2589159     0.8304528
C           3.4819175    -0.4777068     0.1228001
C           4.7755469    -0.6751714    -0.3985935
C           5.0968124    -1.9377520    -1.1645345
H           4.7588542    -1.8839628    -2.2081298
H           4.6110109    -2.8086804    -0.7147923
H           6.1772956    -2.1103321    -1.1837036
C           5.7516007     0.3016007    -0.1878665
H           6.7512079     0.1486854    -0.5864448
23
303_C9H12O2_15-9-10-11 (30,) energy =    -500.5999025
C           1.7270210    -1.1636027    -1.3629101
H           2.3763674    -1.0862224    -2.2444022
H           1.1582163    -0.2298471    -1.2615011
H           1.0350484    -1.9993938    -1.4949650
O           2.4814859    -1.4437307    -0.1832573
C           5.4039523     1.4465808     0.5577694
H           6.1648312     2.2014541     0.7364182
C           4.1116842     1.6470643     1.0276300
H           3.8381153     2.5394886     1.5818305
C           3.1199857     0.6798951     0.8126927
O           1.8940839     0.9709721     1.3471238
C           1.0233356    -0.0712538     1.7857422
H           0.3383733     0.4065557     2.4915294
H           1.5761162    -0.8677403     2.2942353
H           0.4476610    -0.5066100     0.9643328
C           3.4466081    -0.4856927     0.0950084
C           4.7608724    -0.7078334    -0.3548270
C           5.0966298    -1.9869582    -1.0851092
H           4.6284275    -2.0285986    -2.0767931
H           4.7437263    -2.8645338    -0.5336398
H           6.1778436    -2.0769431    -1.2269910
C           5.7327000     0.2663438    -0.1121365
H           6.7498502     0.0995265    -0.4571394
23
303_C9H12O2_15-9-10-11 (45,) energy =    -500.6011098
C           1.7009734    -1.0560094    -1.4574775
H           2.3018846    -0.8919608    -2.3613581
H           1.1301344    -0.1451863    -1.2387843
H           1.0132947    -1.8886628    -1.6255421
O           2.5271154    -1.4307248    -0.3521622
C           5.4216932     1.4411831     0.5380987
H           6.1783370     2.1901319     0.7553199
C           4.1045595     1.6550662     0.9320614
H           3.8059548     2.5531741     1.4637639
C           3.1247883     0.6927735     0.6635534
O           1.8529266     0.9745490     1.0977984
C           1.1084198    -0.0574470     1.7494899
H           0.3233554     0.4577395     2.3089715
H           1.7432462    -0.6180965     2.4458327
H           0.6573414    -0.7579170     1.0426394
C           3.4806659    -0.4793459    -0.0273443
C           4.8139953    -0.7144822    -0.4039739
C           5.1750569    -1.9942214    -1.1199630
H           4.6889495    -2.0625141    -2.1009438
H           4.8559268    -2.8739783    -0.5508149
H           6.2560807    -2.0573509    -1.2770810
C           5.7766633     0.2554091    -0.1075149
H           6.8100020     0.0816636    -0.3967871
23
303_C9H12O2_15-9-10-11 (60,) energy =    -500.6023911
C           1.6529493    -1.0193864    -1.4897749
H           2.2007077    -0.7649088    -2.4063235
H           1.0618071    -0.1544046    -1.1706872
H           0.9925319    -1.8674216    -1.6862124
O           2.5532561    -1.4436060    -0.4602750
C           5.4386558     1.3896021     0.5717119
H           6.1961008     2.1249958     0.8285329
C           4.1084729     1.6131555     0.9193571
H           3.7990431     2.5074895     1.4514664
C           3.1326749     0.6677423     0.5946011
O           1.8311910     0.9362860     0.9587646
C           1.2090271    -0.0216854     1.8221396
H           0.2115827     0.3705610     2.0336469
H           1.7691613    -0.1119627     2.7621142
H           1.1335203    -1.0055922     1.3517197
C           3.4977364    -0.4977702    -0.1033082
C           4.8400826    -0.7417697    -0.4368100
C           5.2141358    -2.0107774    -1.1644821
H           4.7289050    -2.0724552    -2.1459229
H           4.9011192    -2.8992905    -0.6051184
H           6.2961041    -2.0640977    -1.3188990
C           5.8008013     0.2131466    -0.0854447
H           6.8417583     0.0336116    -0.3425272
23
303_C9H12O2_15-9-10-11 (75,) energy =    -500.6027756
C           1.6524442    -1.0549783    -1.5490019
H           2.1929584    -0.7965004    -2.4690166
H           1.0559562    -0.1972216    -1.2237821
H           0.9997135    -1.9097064    -1.7422324
O           2.5620347    -1.4727036    -0.5245984
C           5.4206088     1.3356253     0.6349353
H           6.1721099     2.0606698     0.9348941
C           4.0801606     1.5532284     0.9500847
H           3.7560242     2.4364414     1.4923400
C           3.1179770     0.6191407     0.5649978
O           1.7909303     0.8602848     0.8599275
C           1.2614963     0.0403553     1.9063939
H           0.2211080     0.3473428     2.0379547
H           1.8097900     0.2034616     2.8435568
H           1.3032269    -1.0210327     1.6390187
C           3.4978138    -0.5262136    -0.1556356
C           4.8472477    -0.7607888    -0.4641605
C           5.2414394    -2.0100946    -1.2144264
H           4.7526613    -2.0647947    -2.1942463
H           4.9467402    -2.9130556    -0.6678819
H           6.3235979    -2.0421454    -1.3734372
C           5.7973231     0.1829460    -0.0550751
H           6.8447530     0.0117157    -0.2911498
23
303_C9H12O2_15-9-10-11 (90,) energy =    -500.6022145
C           1.6622634    -1.0909088    -1.6197864
H           2.1987880    -0.8000053    -2.5327355
H           1.0452050    -0.2558096    -1.2760539
H           1.0300537    -1.9559979    -1.8344077
O           2.5775090    -1.5118997    -0.6026074
C           5.3871244     1.2830286     0.6967158
H           6.1273135     2.0013067     1.0381722
C           4.0379562     1.4838890     0.9845624
H           3.6968797     2.3513720     1.5421571
C           3.0924134     0.5575428     0.5436282
O           1.7497866     0.7660762     0.7967588
C           1.2872236     0.1557372     2.0028616
H           0.2271749     0.4066556     2.0892351
H           1.8261603     0.5469960     2.8759306
H           1.4043920    -0.9342014     1.9634559
C           3.4941548    -0.5624636    -0.2026732
C           4.8519646    -0.7750866    -0.4927509
C           5.2722448    -1.9960405    -1.2745819
H           4.7984220    -2.0259677    -2.2627409
H           4.9796710    -2.9185090    -0.7603687
H           6.3569952    -2.0113061    -1.4178702
C           5.7855544     0.1591359    -0.0282044
H           6.8390738     0.0033838    -0.2474653
23
303_C9H12O2_15-9-10-11 (105,) energy =    -500.6015704
C           1.6469701    -1.1348476    -1.6708828
H           2.1644258    -0.7654197    -2.5664673
H           0.9910145    -0.3528818    -1.2783505
H           1.0570562    -2.0161057    -1.9347020
O           2.5854310    -1.5697514    -0.6821582
C           5.3299194     1.2268377     0.7458904
H           6.0552057     1.9439671     1.1202186
C           3.9743975     1.3998573     1.0185943
H           3.6182571     2.2484061     1.5959114
C           3.0469401     0.4744744     0.5357509
O           1.6955893     0.6412083     0.7718024
C           1.2786698     0.2876859     2.0897998
H           0.2067650     0.4935486     2.1401840
H           1.7981498     0.8853717     2.8501618
H           1.4570691    -0.7771743     2.2873528
C           3.4745573    -0.6154762    -0.2399996
C           4.8401203    -0.7954280    -0.5206780
C           5.2885921    -1.9833498    -1.3368029
H           4.8231870    -1.9898436    -2.3293243
H           5.0077116    -2.9266873    -0.8548960
H           6.3746883    -1.9753531    -1.4703744
C           5.7540202     0.1341650    -0.0118056
H           6.8124253     0.0006890    -0.2218890
23
303_C9H12O2_15-9-10-11 (120,) energy =    -500.6012494
C           1.6388655    -1.1662659    -1.7033052
H           2.1373759    -0.7273137    -2.5781527
H           0.9551143    -0.4335057    -1.2660955
H           1.0812997    -2.0529348    -2.0151810
O           2.5975374    -1.6212278    -0.7444981
C           5.2982667     1.1553331     0.7972230
H           6.0127501     1.8672531     1.2012488
C           3.9400351     1.3034786     1.0705462
H           3.5819530     2.1299750     1.6773096
C           3.0227600     0.3855416     0.5524999
O           1.6673971     0.5053849     0.7821233
C           1.2632415     0.4250550     2.1465337
H           0.1733633     0.5006355     2.1469232
H           1.6773767     1.2443409     2.7477567
H           1.5644286    -0.5322872     2.5908316
C           3.4679513    -0.6705482    -0.2615766
C           4.8366340    -0.8222922    -0.5438446
C           5.3014352    -1.9751322    -1.4001316
H           4.8406267    -1.9501162    -2.3944964
H           5.0281084    -2.9382676    -0.9544961
H           6.3880597    -1.9508417    -1.5274370
C           5.7391086     0.0970513     0.0021289
H           6.7997660    -0.0168762    -0.2076258
23
303_C9H12O2_15-9-10-11 (135,) energy =    -500.6016966
C           1.6557171    -1.1898231    -1.7324226
H           2.1413898    -0.7015003    -2.5882245
H           0.9554203    -0.4927757    -1.2635339
H           1.1173493    -2.0743845    -2.0817552
O           2.6263569    -1.6636047    -0.7960249
C           5.2859907     1.0896011     0.8496948
H           5.9891939     1.7922814     1.2882342
C           3.9260015     1.2048310     1.1355447
H           3.5668709     1.9933418     1.7893848
C           3.0193888     0.3012167     0.5747641
O           1.6663463     0.3545968     0.8160108
C           1.2611031     0.5472145     2.1668054
H           0.1906718     0.3305842     2.1958963
H           1.4195616     1.5801054     2.5036393
H           1.7934117    -0.1358863     2.8399961
C           3.4823121    -0.7172661    -0.2800870
C           4.8505229    -0.8331371    -0.5729290
C           5.3305043    -1.9449263    -1.4741235
H           4.8645004    -1.8906859    -2.4648797
H           5.0757611    -2.9285498    -1.0636423
H           6.4159470    -1.8972769    -1.6049145
C           5.7421332     0.0771729     0.0073681
H           6.8036109    -0.0112190    -0.2099939
23
303_C9H12O2_15-9-10-11 (150,) energy =    -500.6029024
C           1.6784767    -1.2241064    -1.7341500
H           2.1517170    -0.6988824    -2.5749573
H           0.9657378    -0.5561211    -1.2418380
H           1.1554731    -2.1067724    -2.1105361
O           2.6605763    -1.7091803    -0.8160890
C           5.2836374     1.0385667     0.8928073
H           5.9767518     1.7398020     1.3494073
C           3.9247599     1.1148412     1.2019709
H           3.5652949     1.8693715     1.8936447
C           3.0292483     0.2141963     0.6185293
O           1.6824439     0.2055007     0.8771883
C           1.2544454     0.6558565     2.1550705
H           0.2134098     0.3401435     2.2530588
H           1.3012715     1.7496320     2.2431805
H           1.8538841     0.2047595     2.9555139
C           3.5050750    -0.7640928    -0.2781942
C           4.8699017    -0.8407743    -0.5899406
C           5.3612413    -1.9108352    -1.5346559
H           4.8852384    -1.8298986    -2.5188506
H           5.1281117    -2.9128599    -1.1573232
H           6.4443450    -1.8385417    -1.6732378
C           5.7511142     0.0684104     0.0101660
H           6.8112695     0.0102453    -0.2227916
23
303_C9H12O2_15-9-10-11 (165,) energy =    -500.6039593
C           1.6767338    -1.2510576    -1.7083823
H           2.1343039    -0.6953198    -2.5381909
H           0.9604039    -0.6069892    -1.1897949
H           1.1606250    -2.1288737    -2.1050362
O           2.6738569    -1.7499085    -0.8146132
C           5.2773779     0.9906434     0.9328032
H           5.9645750     1.6922414     1.3977810
C           3.9240973     1.0262840     1.2766837
H           3.5704611     1.7492924     2.0031963
C           3.0356827     0.1242493     0.6843672
O           1.6977021     0.0610512     0.9678732
C           1.2298003     0.7367207     2.1241324
H           0.1855967     0.4403002     2.2421268
H           1.2807967     1.8279852     2.0094954
H           1.7977588     0.4421873     3.0159374
C           3.5131678    -0.8084095    -0.2609637
C           4.8707635    -0.8458659    -0.6028470
C           5.3630682    -1.8703590    -1.5964644
H           4.8629331    -1.7655970    -2.5663263
H           5.1607793    -2.8900761    -1.2500267
H           6.4407955    -1.7685794    -1.7566913
C           5.7464788     0.0622534     0.0087987
H           6.8019579     0.0360108    -0.2494489
23
303_C9H12O2_15-9-10-11 (180,) energy =    -500.6042835
C           2.1477770    -2.5647467    -0.2462171
H           1.4776161    -2.1303132     0.5015447
H           2.9366249    -3.1384482     0.2591042
H           1.5823094    -3.2315671    -0.9018329
O           2.7077816    -1.5595414    -1.0932231
C           5.2812400     1.2220134     0.6321702
H           5.9543712     1.9541166     1.0698657
C           3.9306096     1.2353313     0.9893509
H           3.5670949     1.9759498     1.6924612
C           3.0574303     0.3005667     0.4256697
O           1.7148181     0.2400664     0.6841296
C           1.1667971     1.1827233     1.5904273
H           0.0998235     0.9585206     1.6458508
H           1.3020779     2.2118189     1.2323878
H           1.6099944     1.0892732     2.5909968
C           3.5534595    -0.6592111    -0.4828529
C           4.9057461    -0.6667854    -0.8453300
C           5.4056327    -1.6843098    -1.8422776
H           4.8823385    -1.5925634    -2.8005901
H           5.2380127    -2.7096164    -1.4922349
H           6.4777217    -1.5574849    -2.0213267
C           5.7627286     0.2877757    -0.2790169
H           6.8136566     0.2877949    -0.5564873
