23
303_C9H12O2_0-4-15-16 (-165,) energy =    -500.6020214
C           1.7200036    -2.2327980    -0.5659942
H           1.1338741    -1.4023396    -0.9726868
H           1.4274973    -2.4025500     0.4728073
H           1.5287711    -3.1340352    -1.1547889
O           3.1207841    -2.0045367    -0.6955694
C           5.2607078     1.3964815     0.4184526
H           5.8425624     2.2726243     0.6898551
C           3.9781852     1.2324410     0.9406181
H           3.5778707     1.9772411     1.6183925
C           3.2132756     0.1089294     0.6091050
O           1.9604137    -0.1253797     1.1249301
C           1.4065548     0.8322588     2.0089075
H           0.4206766     0.4503412     2.2822032
H           1.2937052     1.8130600     1.5275864
H           2.0141281     0.9459009     2.9166686
C           3.7382209    -0.8521669    -0.2859653
C           5.0395634    -0.6904780    -0.7972524
C           5.5979040    -1.7369207    -1.7297086
H           4.9701205    -1.8538099    -2.6208631
H           5.6379797    -2.7213809    -1.2488496
H           6.6088868    -1.4685505    -2.0512304
C           5.7867934     0.4355082    -0.4383118
H           6.7885126     0.5528853    -0.8435409
23
303_C9H12O2_0-4-15-16 (-150,) energy =    -500.6029179
C           1.7400253    -2.1822981    -0.6768856
H           1.3085916    -1.3199979    -1.1981715
H           1.2634972    -2.2846692     0.3002904
H           1.5674905    -3.0849295    -1.2697004
O           3.1583563    -2.0709793    -0.5683459
C           5.2162092     1.4334451     0.3573507
H           5.7732562     2.3379407     0.5846182
C           3.9500030     1.2470652     0.9125535
H           3.5396285     2.0002743     1.5750072
C           3.2229210     0.0844067     0.6369365
O           1.9996203    -0.1948402     1.1946288
C           1.4245049     0.7625419     2.0661681
H           0.4670827     0.3423440     2.3809059
H           1.2501100     1.7211024     1.5591709
H           2.0523888     0.9332597     2.9507092
C           3.7606286    -0.8830560    -0.2423629
C           5.0460737    -0.7023312    -0.7815115
C           5.6237286    -1.7633342    -1.6855163
H           4.9709527    -1.9543420    -2.5449883
H           5.7329453    -2.7201164    -1.1612858
H           6.6075146    -1.4613523    -2.0576846
C           5.7614917     0.4599189    -0.4730632
H           6.7517969     0.5974473    -0.8994179
23
303_C9H12O2_0-4-15-16 (-135,) energy =    -500.6037075
C           1.7520314    -2.1259280    -0.7646693
H           1.5064997    -1.3162013    -1.4633871
H           1.1067845    -2.0497970     0.1131297
H           1.5936135    -3.0876685    -1.2602582
O           3.1355324    -2.0984792    -0.4099483
C           5.1522269     1.4723323     0.3244658
H           5.6945161     2.3953163     0.5098314
C           3.9061320     1.2758807     0.9222444
H           3.4968728     2.0393861     1.5736588
C           3.2030753     0.0881738     0.6978615
O           2.0017453    -0.2132996     1.2857977
C           1.4275028     0.7404074     2.1630283
H           0.4929492     0.2985165     2.5142301
H           1.2103351     1.6863349     1.6489435
H           2.0790663     0.9406264     3.0237866
C           3.7423374    -0.8908129    -0.1660412
C           5.0035685    -0.6987381    -0.7504385
C           5.5818112    -1.7731247    -1.6385423
H           4.9125878    -2.0043953    -2.4751222
H           5.7270828    -2.7106104    -1.0892730
H           6.5482514    -1.4606176    -2.0458625
C           5.6990390     0.4895923    -0.4941263
H           6.6731727     0.6405054    -0.9520323
23
303_C9H12O2_0-4-15-16 (-120,) energy =    -500.6042160
C           1.8317934    -2.1096232    -0.8990623
H           1.8611969    -1.5843488    -1.8633033
H           1.0850259    -1.6412976    -0.2525996
H           1.5686655    -3.1566310    -1.0687469
O           3.1230129    -2.1252819    -0.2864211
C           5.1290876     1.4790858     0.2894798
H           5.6648007     2.4118531     0.4429842
C           3.9014224     1.2816907     0.9257293
H           3.4995357     2.0546958     1.5706248
C           3.2087142     0.0818316     0.7389935
O           2.0207270    -0.2259881     1.3464390
C           1.4673397     0.7177217     2.2484010
H           0.5504636     0.2641414     2.6296955
H           1.2222972     1.6638195     1.7472834
H           2.1472861     0.9203929     3.0862136
C           3.7435600    -0.9084909    -0.1137950
C           4.9812232    -0.7139418    -0.7406162
C           5.5523581    -1.8018614    -1.6175913
H           4.8708941    -2.0590779    -2.4365735
H           5.7189540    -2.7245780    -1.0501274
H           6.5066049    -1.4885600    -2.0521093
C           5.6670837     0.4898093    -0.5269212
H           6.6265881     0.6458971    -1.0130814
23
303_C9H12O2_0-4-15-16 (-105,) energy =    -500.6041189
C           1.9251775    -2.1800431    -1.0096101
H           2.1754754    -1.8529349    -2.0280214
H           1.1461894    -1.5279489    -0.5997748
H           1.5581628    -3.2089457    -1.0417056
O           3.0817319    -2.1944378    -0.1724562
C           5.1071802     1.4177908     0.2485154
H           5.6440715     2.3547357     0.3697208
C           3.9012077     1.2278626     0.9284830
H           3.5139357     2.0128360     1.5679757
C           3.2086510     0.0227521     0.7794258
O           2.0257802    -0.2773611     1.3962006
C           1.4746357     0.6829120     2.2817466
H           0.5578832     0.2373445     2.6726247
H           1.2299431     1.6202478     1.7639937
H           2.1557843     0.9004164     3.1150069
C           3.7333806    -0.9842195    -0.0581391
C           4.9393010    -0.7928071    -0.7411556
C           5.4875172    -1.8938188    -1.6169445
H           4.8150519    -2.1203904    -2.4531564
H           5.6104997    -2.8249619    -1.0532738
H           6.4587221    -1.6105101    -2.0339816
C           5.6230233     0.4203354    -0.5724239
H           6.5638500     0.5759351    -1.0940053
23
303_C9H12O2_0-4-15-16 (-90,) energy =    -500.6031331
C           2.0285119    -2.2262807    -1.0926151
H           2.4633559    -2.0553671    -2.0863455
H           1.2361132    -1.4885458    -0.9144791
H           1.6008143    -3.2313471    -1.0550936
O           3.0189485    -2.1723121    -0.0684499
C           5.0649244     1.4372213     0.2683061
H           5.6025586     2.3756325     0.3743691
C           3.8873300     1.2385203     0.9947620
H           3.5197594     2.0206399     1.6491718
C           3.1949188     0.0315834     0.8644097
O           2.0294364    -0.2727027     1.5080817
C           1.4956709     0.6876220     2.4035218
H           0.5871554     0.2417196     2.8128944
H           1.2398725     1.6245959     1.8901609
H           2.1925686     0.9069809     3.2233940
C           3.6980828    -0.9734218     0.0103509
C           4.8718855    -0.7713104    -0.7238109
C           5.4004243    -1.8589959    -1.6284539
H           4.8970000    -1.8565369    -2.6045594
H           5.2423879    -2.8475722    -1.1877730
H           6.4704382    -1.7236226    -1.8147451
C           5.5530226     0.4472428    -0.5771769
H           6.4737854     0.6096068    -1.1317366
23
303_C9H12O2_0-4-15-16 (-75,) energy =    -500.6015990
C           2.1515185    -2.2867837    -1.1847092
H           2.7564107    -2.3311243    -2.0984177
H           1.4109458    -1.4823948    -1.2847595
H           1.6320093    -3.2393396    -1.0536984
O           2.9486496    -2.1052252    -0.0180180
C           5.0508785     1.4804407     0.2518984
H           5.5952266     2.4166372     0.3417794
C           3.8986243     1.2820111     1.0180838
H           3.5546693     2.0635384     1.6857835
C           3.1959750     0.0797287     0.9054231
O           2.0500630    -0.2174279     1.5844520
C           1.5509959     0.7455960     2.4960850
H           0.6514297     0.3060512     2.9313790
H           1.2870842     1.6854072     1.9918466
H           2.2729745     0.9590594     3.2957792
C           3.6663197    -0.9280863     0.0329810
C           4.8196695    -0.7283199    -0.7351773
C           5.3494187    -1.8178981    -1.6378582
H           4.9501640    -1.7383497    -2.6579347
H           5.0844604    -2.8079139    -1.2555258
H           6.4399245    -1.7571344    -1.7146468
C           5.5066189     0.4900909    -0.6095009
H           6.4120802     0.6477026    -1.1902468
23
303_C9H12O2_0-4-15-16 (-60,) energy =    -500.5994457
C           2.2394524    -2.3782478    -1.2517488
H           2.9444524    -2.8753024    -1.9269393
H           1.8200410    -1.4982094    -1.7562271
H           1.4300378    -3.0736923    -1.0142972
O           2.8305899    -2.0240863    -0.0058242
C           5.0459360     1.4941407     0.2721770
H           5.6093371     2.4185553     0.3652134
C           3.9029286     1.3046426     1.0537699
H           3.5830971     2.0828745     1.7370028
C           3.1741627     0.1195927     0.9340604
O           2.0344953    -0.1613409     1.6297493
C           1.5747975     0.7982221     2.5646964
H           0.6739043     0.3719897     3.0104868
H           1.3221035     1.7513392     2.0798808
H           2.3159036     0.9840189     3.3539017
C           3.6055327    -0.8871416     0.0364077
C           4.7588186    -0.7010046    -0.7374990
C           5.2927111    -1.7902145    -1.6398042
H           4.8100633    -1.7935058    -2.6257096
H           5.1435654    -2.7801212    -1.1964220
H           6.3655500    -1.6515648    -1.8066097
C           5.4681155     0.5048652    -0.6059110
H           6.3703062     0.6489918    -1.1951045
23
303_C9H12O2_0-4-15-16 (-45,) energy =    -500.5976047
C           2.2798217    -2.4618077    -1.2958565
H           2.9818815    -3.2113845    -1.6761724
H           2.1619834    -1.6656257    -2.0416491
H           1.3104709    -2.9411931    -1.1318022
O           2.6752974    -1.9372384    -0.0351499
C           5.0330119     1.4810761     0.3087050
H           5.6252346     2.3852112     0.4187836
C           3.8902124     1.3042887     1.0935753
H           3.5960841     2.0726441     1.7991163
C           3.1253695     0.1467458     0.9479909
O           1.9830146    -0.1171219     1.6466507
C           1.5591419     0.8326768     2.6075496
H           0.6488027     0.4230858     3.0498317
H           1.3319029     1.8044419     2.1476820
H           2.3107749     0.9773872     3.3955201
C           3.5143718    -0.8517675     0.0187714
C           4.6739466    -0.6838113    -0.7530654
C           5.2069544    -1.7634200    -1.6712094
H           4.6473800    -1.8462900    -2.6103721
H           5.1826368    -2.7460595    -1.1872643
H           6.2474291    -1.5484027    -1.9328883
C           5.4168812     0.4995599    -0.5937851
H           6.3204345     0.6290510    -1.1841529
23
303_C9H12O2_0-4-15-16 (-30,) energy =    -500.5956805
C           2.3196359    -2.5375085    -1.3019970
H           3.0735370    -3.3053196    -1.5028200
H           2.2601836    -1.8525380    -2.1571647
H           1.3496689    -3.0253524    -1.1728607
O           2.5555066    -1.8387550    -0.0904081
C           5.0686336     1.4558054     0.3576851
H           5.6929689     2.3337969     0.4968928
C           3.9159136     1.2948853     1.1308850
H           3.6441658     2.0498592     1.8593510
C           3.1126156     0.1716129     0.9445771
O           1.9576152    -0.0716856     1.6308073
C           1.5604046     0.8661915     2.6139783
H           0.6320780     0.4780064     3.0378499
H           1.3723151     1.8577892     2.1794371
H           2.3098691     0.9621755     3.4115521
C           3.4658373    -0.8160451    -0.0142820
C           4.6379715    -0.6664278    -0.7745711
C           5.1742820    -1.7210186    -1.7244336
H           4.5791167    -1.8341909    -2.6367977
H           5.2337281    -2.7046956    -1.2456564
H           6.1881405    -1.4501698    -2.0338342
C           5.4187429     0.4873779    -0.5704367
H           6.3294876     0.6022410    -1.1525808
23
303_C9H12O2_0-4-15-16 (-15,) energy =    -500.5940007
C           2.3326110    -2.6298023    -1.2535013
H           3.1411929    -3.3667984    -1.2847097
H           2.2885445    -2.0926604    -2.2088758
H           1.3860858    -3.1555974    -1.1041548
O           2.4383760    -1.7426715    -0.1549152
C           5.1042537     1.4080160     0.4309320
H           5.7652829     2.2510191     0.6105011
C           3.9291316     1.2735581     1.1743838
H           3.6763475     2.0129413     1.9252187
C           3.0829141     0.1943288     0.9343348
O           1.9066950    -0.0208966     1.5944055
C           1.5295345     0.9049108     2.5963061
H           0.5768928     0.5452683     2.9904410
H           1.3928814     1.9156050     2.1873034
H           2.2654635     0.9461121     3.4111478
C           3.4068002    -0.7790036    -0.0522848
C           4.5979246    -0.6529293    -0.7900042
C           5.1142830    -1.6653379    -1.7988686
H           4.4678188    -1.7859731    -2.6731347
H           5.2571668    -2.6560403    -1.3532773
H           6.0911086    -1.3386475    -2.1673746
C           5.4240038     0.4578306    -0.5252466
H           6.3467775     0.5552275    -1.0912304
23
303_C9H12O2_0-4-15-16 (0,) energy =    -500.5932293
C           2.3805734    -2.7333906    -1.1590011
H           3.1965938    -3.4382668    -0.9651609
H           2.4314161    -2.3884013    -2.1972543
H           1.4301491    -3.2520509    -1.0100841
O           2.3615072    -1.6629714    -0.2332367
C           5.1466118     1.3490381     0.5090106
H           5.8419013     2.1516012     0.7376062
C           3.9434941     1.2471043     1.2114370
H           3.7043525     1.9686650     1.9837275
C           3.0583931     0.2153340     0.9126639
O           1.8593568     0.0281762     1.5399164
C           1.4949192     0.9394566     2.5595262
H           0.5188270     0.6082307     2.9197790
H           1.4097150     1.9662575     2.1776375
H           2.2110015     0.9269451     3.3928673
C           3.3628382    -0.7380016    -0.1005388
C           4.5748913    -0.6362235    -0.8083239
C           5.0366919    -1.5709275    -1.9152665
H           4.3810345    -1.5517495    -2.7919131
H           5.1265493    -2.6117931    -1.5903013
H           6.0284624    -1.2589031    -2.2552590
C           5.4446481     0.4224904    -0.4764903
H           6.3813264     0.5030083    -1.0218309
23
303_C9H12O2_0-4-15-16 (15,) energy =    -500.5940009
C           2.4436262    -2.8018924    -1.0588817
H           3.2745934    -3.4083070    -0.6780449
H           2.5687063    -2.6438669    -2.1346543
H           1.5095925    -3.3443493    -0.8916215
O           2.3009331    -1.5918297    -0.3374521
C           5.1874131     1.2689374     0.5894695
H           5.9143964     2.0251679     0.8713498
C           3.9582820     1.2043746     1.2504042
H           3.7341177     1.9050166     2.0461353
C           3.0335616     0.2283028     0.8891087
O           1.8123380     0.0708242     1.4802106
C           1.4562218     0.9673417     2.5158949
H           0.4554206     0.6701898     2.8357616
H           1.4290583     2.0075751     2.1631751
H           2.1439935     0.8979178     3.3700757
C           3.3222191    -0.6975370    -0.1526798
C           4.5530452    -0.6226121    -0.8296765
C           4.9508918    -1.4780625    -2.0210130
H           4.2520805    -1.3705033    -2.8579999
H           5.0301930    -2.5447235    -1.7912474
H           5.9318518    -1.1560063    -2.3825610
C           5.4669671     0.3727610    -0.4293849
H           6.4170154     0.4352039    -0.9536478
23
303_C9H12O2_0-4-15-16 (30,) energy =    -500.5956805
C           2.5029132    -2.8476807    -0.8219555
H           3.1693395    -3.2948141    -0.0736387
H           2.8896078    -3.0567205    -1.8244529
H           1.5124149    -3.3010624    -0.7278139
O           2.3086657    -1.4627473    -0.5851689
C           5.2342567     1.2085031     0.7094574
H           5.9689717     1.9201118     1.0753119
C           3.8894815     1.3592400     1.0578097
H           3.5858591     2.1790810     1.6982548
C           2.9503738     0.4403465     0.5936403
O           1.6184192     0.4836463     0.8905487
C           1.1546531     1.5451335     1.7042949
H           0.0782050     1.3935495     1.8064078
H           1.3397623     2.5240822     1.2412311
H           1.6180634     1.5279281     2.7005001
C           3.3489681    -0.6378862    -0.2419327
C           4.6973863    -0.7754533    -0.6122971
C           5.2048747    -1.8066435    -1.6028173
H           4.6234239    -1.7967735    -2.5313641
H           5.1909887    -2.8312915    -1.2163691
H           6.2413005    -1.5773212    -1.8678278
C           5.6215866     0.1626766    -0.1139893
H           6.6642398     0.0623574    -0.4044242
23
303_C9H12O2_0-4-15-16 (45,) energy =    -500.5976047
C           2.4982134    -2.8257041    -0.7391901
H           3.1048777    -3.1571134     0.1129392
H           2.9471440    -3.1954164    -1.6671813
H           1.4929792    -3.2463146    -0.6445524
O           2.3330704    -1.4137261    -0.7404177
C           5.2426461     1.1651989     0.7580588
H           5.9782822     1.8516521     1.1678473
C           3.8932160     1.3226809     1.0859329
H           3.5897611     2.1207956     1.7534634
C           2.9488079     0.4375234     0.5656698
O           1.6120798     0.4872418     0.8366180
C           1.1443444     1.5253625     1.6784267
H           0.0637074     1.3867945     1.7499708
H           1.3547067     2.5174353     1.2561358
H           1.5838260     1.4644110     2.6837047
C           3.3548184    -0.6074199    -0.3032663
C           4.7067595    -0.7515694    -0.6497211
C           5.1854900    -1.7680376    -1.6647338
H           4.5380637    -1.7843044    -2.5484471
H           5.2243117    -2.7892157    -1.2676123
H           6.1957260    -1.5125076    -1.9985359
C           5.6371207     0.1476601    -0.0988094
H           6.6842104     0.0439493    -0.3718623
23
303_C9H12O2_0-4-15-16 (60,) energy =    -500.5994457
C           2.4760373    -2.7691033    -0.6563476
H           2.7581966    -2.9761568     0.3840304
H           3.1787744    -3.2775518    -1.3253850
H           1.4714234    -3.1598190    -0.8387489
O           2.4025369    -1.3683232    -0.9005091
C           5.2766905     1.1450508     0.7683671
H           6.0071355     1.8151699     1.2133493
C           3.9239979     1.2944350     1.0864379
H           3.6165373     2.0686550     1.7798316
C           2.9828876     0.4326109     0.5195667
O           1.6432787     0.4737362     0.7755077
C           1.1657308     1.4811587     1.6491533
H           0.0840913     1.3420514     1.7012753
H           1.3830678     2.4874995     1.2662094
H           1.5919438     1.3823250     2.6570753
C           3.4013053    -0.5739129    -0.3844303
C           4.7564730    -0.7145244    -0.7121385
C           5.2238708    -1.7215096    -1.7383425
H           4.5002551    -1.8205073    -2.5540182
H           5.3760415    -2.7200246    -1.3084813
H           6.1796106    -1.4070426    -2.1692753
C           5.6844445     0.1586732    -0.1197406
H           6.7354445     0.0615339    -0.3801873
23
303_C9H12O2_0-4-15-16 (75,) energy =    -500.6015990
C           2.4086539    -2.7076835    -0.5455308
H           2.2047330    -2.7285127     0.5331174
H           3.3333097    -3.2625934    -0.7450569
H           1.5826408    -3.1871584    -1.0767762
O           2.4678077    -1.3687704    -1.0286051
C           5.2859361     1.1243149     0.7579781
H           6.0080484     1.7897048     1.2234530
C           3.9309510     1.2537634     1.0763517
H           3.6146098     2.0075592     1.7881328
C           2.9994105     0.4002360     0.4800177
O           1.6576775     0.4184482     0.7288499
C           1.1638292     1.3934266     1.6305639
H           0.0836736     1.2405316     1.6728338
H           1.3716164     2.4129671     1.2788653
H           1.5867070     1.2687742     2.6369371
C           3.4337266    -0.5714264    -0.4502042
C           4.7910953    -0.7015538    -0.7677095
C           5.2553997    -1.7105346    -1.7919287
H           4.4759672    -1.9029814    -2.5348701
H           5.5204407    -2.6721999    -1.3323185
H           6.1474629    -1.3472157    -2.3125184
C           5.7099765     0.1637255    -0.1519439
H           6.7641325     0.0804358    -0.4045022
23
303_C9H12O2_0-4-15-16 (90,) energy =    -500.6031331
C           2.2897369    -2.6514489    -0.4458149
H           1.8739419    -2.4879940     0.5563262
H           3.2093713    -3.2456234    -0.3619642
H           1.5631674    -3.1968904    -1.0533374
O           2.5223655    -1.4129284    -1.1126662
C           5.2715053     1.1251533     0.7117263
H           5.9807609     1.8025143     1.1797552
C           3.9181456     1.2121232     1.0505116
H           3.5911323     1.9464786     1.7777361
C           3.0019440     0.3456621     0.4480591
O           1.6612931     0.3242636     0.7077606
C           1.1485435     1.2718973     1.6286341
H           0.0728550     1.0914602     1.6750227
H           1.3288151     2.3014152     1.2916300
H           1.5813139     1.1415545     2.6299405
C           3.4525617    -0.5975173    -0.5006223
C           4.8084192    -0.6908442    -0.8332072
C           5.2735558    -1.7011326    -1.8548495
H           4.5454671    -1.8045583    -2.6645782
H           5.4061982    -2.6969312    -1.4109949
H           6.2365460    -1.4056723    -2.2829940
C           5.7118812     0.1898261    -0.2179892
H           6.7656467     0.1359368    -0.4794809
23
303_C9H12O2_0-4-15-16 (105,) energy =    -500.6041189
C           2.1849899    -2.6011018    -0.3669664
H           1.6249709    -2.2758207     0.5165411
H           3.0367627    -3.2188736    -0.0512890
H           1.5318572    -3.1917669    -1.0141939
O           2.6165101    -1.4852605    -1.1462872
C           5.3067031     1.1161736     0.6766999
H           6.0069118     1.8051663     1.1412497
C           3.9596204     1.1577174     1.0460816
H           3.6265541     1.8735555     1.7888855
C           3.0538804     0.2764698     0.4484340
O           1.7157867     0.2280964     0.7256115
C           1.1950882     1.1610724     1.6575476
H           0.1230180     0.9624197     1.7118968
H           1.3556813     2.1951414     1.3251229
H           1.6387575     1.0312583     2.6539648
C           3.5114424    -0.6458287    -0.5163721
C           4.8606580    -0.6893081    -0.8839621
C           5.3204671    -1.6739018    -1.9322580
H           4.7624891    -1.5481717    -2.8664584
H           5.1645510    -2.7110027    -1.6114675
H           6.3860105    -1.5445589    -2.1451219
C           5.7523622     0.2083813    -0.2784206
H           6.8014106     0.1864519    -0.5620240
23
303_C9H12O2_0-4-15-16 (120,) energy =    -500.6042161
C           2.0822452    -2.5141413    -0.2787353
H           1.3518636    -2.0569718     0.3939063
H           2.8129230    -3.0856716     0.3094830
H           1.5738816    -3.1884396    -0.9723797
O           2.7340924    -1.5357430    -1.0915342
C           5.3250817     1.1835517     0.7083696
H           6.0058307     1.8970856     1.1645026
C           3.9817381     1.1777484     1.0909042
H           3.6302299     1.8876354     1.8307979
C           3.0976636     0.2675117     0.5041635
O           1.7576612     0.2064001     0.7793268
C           1.2203877     1.1452184     1.6960162
H           0.1502068     0.9353343     1.7454518
H           1.3721531     2.1764788     1.3513395
H           1.6583119     1.0325529     2.6969132
C           3.5772004    -0.6566992    -0.4497307
C           4.9220771    -0.6405370    -0.8416631
C           5.4048326    -1.6122749    -1.8912018
H           4.8784535    -1.4664260    -2.8413413
H           5.2248261    -2.6512630    -1.5921115
H           6.4773858    -1.4887190    -2.0698433
C           5.7882057     0.2912130    -0.2528142
H           6.8329341     0.3057830    -0.5523048
23
303_C9H12O2_0-4-15-16 (135,) energy =    -500.6037074
C           1.9447489    -2.4387756    -0.2729610
H           1.0204394    -1.9153696    -0.0192498
H           2.4347289    -2.7724606     0.6504684
H           1.7201496    -3.3097580    -0.8947282
O           2.8190649    -1.6227506    -1.0541978
C           5.3215783     1.2185329     0.6840905
H           5.9867544     1.9569702     1.1229393
C           3.9848974     1.1742756     1.0841048
H           3.6207030     1.8829323     1.8189124
C           3.1175031     0.2338794     0.5196874
O           1.7800838     0.1541835     0.8107299
C           1.2437616     1.0689461     1.7511626
H           0.1804911     0.8323186     1.8250794
H           1.3608258     2.1077836     1.4155440
H           1.7096796     0.9558145     2.7392646
C           3.6106145    -0.6932419    -0.4252091
C           4.9500631    -0.6340987    -0.8393244
C           5.4492733    -1.6067565    -1.8795792
H           4.9125215    -1.4882838    -2.8280098
H           5.2954004    -2.6449408    -1.5637780
H           6.5168977    -1.4581073    -2.0684132
C           5.7950869     0.3302997    -0.2759654
H           6.8340540     0.3716214    -0.5925545
23
303_C9H12O2_0-4-15-16 (150,) energy =    -500.6029169
C           1.8668973    -2.3926244    -0.3293945
H           0.9502937    -1.7990568    -0.3330719
H           2.1408118    -2.6236522     0.7064416
H           1.7060689    -3.3259428    -0.8762212
O           2.9297636    -1.7338695    -1.0166584
C           5.3385122     1.2521126     0.6128295
H           5.9864472     2.0223501     1.0214580
C           4.0125712     1.1698270     1.0387894
H           3.6379895     1.8831336     1.7636689
C           3.1630608     0.1892558     0.5160840
O           1.8330463     0.0865641     0.8416034
C           1.3009114     0.9965743     1.7880206
H           0.2477622     0.7302436     1.8985893
H           1.3761539     2.0346177     1.4378658
H           1.8008234     0.9090177     2.7620367
C           3.6674323    -0.7464644    -0.4157204
C           4.9971843    -0.6458948    -0.8599137
C           5.5095792    -1.6264967    -1.8858482
H           4.9424580    -1.5601413    -2.8217343
H           5.4084951    -2.6602130    -1.5354785
H           6.5642664    -1.4380673    -2.1087173
C           5.8203172     0.3575238    -0.3370356
H           6.8499235     0.4251927    -0.6787132
23
303_C9H12O2_0-4-15-16 (165,) energy =    -500.6020217
C           1.7924615    -2.3451017    -0.3926422
H           0.9547705    -1.6640456    -0.5596564
H           1.8756705    -2.5556151     0.6785245
H           1.6211707    -3.2796857    -0.9336492
O           3.0107446    -1.8340144    -0.9270107
C           5.3213373     1.3064176     0.5520901
H           5.9484276     2.1137984     0.9191889
C           4.0086153     1.1910068     1.0079665
H           3.6244828     1.9133710     1.7185759
C           3.1820323     0.1619756     0.5440919
O           1.8687668     0.0229738     0.9271333
C           1.3367351     0.9500669     1.8559229
H           0.2990462     0.6496749     2.0155221
H           1.3595967     1.9757209     1.4640027
H           1.8732358     0.9199788     2.8138605
C           3.6949589    -0.7838578    -0.3739696
C           5.0155341    -0.6539630    -0.8433210
C           5.5424933    -1.6534028    -1.8432060
H           4.9572293    -1.6390497    -2.7703157
H           5.4812960    -2.6768175    -1.4552297
H           6.5863983    -1.4385742    -2.0914166
C           5.8147129     0.3923824    -0.3727375
H           6.8346959     0.4798602    -0.7379385
23
303_C9H12O2_0-4-15-16 (180,) energy =    -500.6016273
C           1.7439525    -2.2955883    -0.4809447
H           1.0196451    -1.5322217    -0.7785885
H           1.6367341    -2.4936740     0.5890272
H           1.5587032    -3.2144470    -1.0436000
O           3.0766517    -1.9274900    -0.8237303
C           5.2934775     1.3546161     0.4847306
H           5.8986345     2.1978767     0.8049557
C           3.9946220     1.2108445     0.9706139
H           3.6012037     1.9440496     1.6647935
C           3.1977623     0.1321573     0.5715647
O           1.9113408    -0.0549882     1.0217234
C           1.3719986     0.8877090     1.9299861
H           0.3583336     0.5448362     2.1479328
H           1.3267224     1.8941446     1.4925207
H           1.9482413     0.9282676     2.8641171
C           3.7183848    -0.8205800    -0.3352079
C           5.0309002    -0.6715927    -0.8229253
C           5.5754637    -1.6943550    -1.7891881
H           4.9691071    -1.7457005    -2.7012679
H           5.5648606    -2.7007635    -1.3545124
H           6.6041263    -1.4501203    -2.0714194
C           5.8034051     0.4163226    -0.4060628
H           6.8149220     0.5197048    -0.7900936
