19
262_C7H9NOS_1-0-9-15 (-165,) energy =    -800.3195953
N           1.1200204    -0.9749649     0.7201179
C           0.0351067    -1.3250938     1.6263087
H          -0.7875733    -0.6082729     1.5103382
H          -0.3511247    -2.3320939     1.4152959
H           0.4093441    -1.3011758     2.6486213
C           0.7481959    -0.8375674    -0.6785969
H           0.0904653    -1.6701838    -0.9598952
H           1.6311530    -0.8717248    -1.3157114
H           0.2043983     0.0988596    -0.8706623
C           2.4009678    -0.9332178     1.2236688
O           2.6775968    -1.3856587     2.3356027
C           4.7249816     1.1933487    -0.9023746
H           4.8999113     1.9988425    -1.6074169
C           3.4315081     0.7795070    -0.4760641
H           2.5164833     1.2587237    -0.8040950
C           3.4633266    -0.2618081     0.4254529
S           5.1110089    -0.7203826     0.7811235
C           5.7259517     0.4621471    -0.3173952
H           6.7932737     0.5598871    -0.4674913
19
262_C7H9NOS_1-0-9-15 (-150,) energy =    -800.3172098
N           1.1510371    -1.1120916     0.6854755
C           0.0531387    -1.2165048     1.6360659
H          -0.5860703    -0.3245680     1.5719782
H          -0.5663619    -2.0989744     1.4284826
H           0.4668179    -1.3062750     2.6396382
C           0.7614799    -0.9120437    -0.6989904
H           0.0205079    -1.6736556    -0.9733213
H           1.6228739    -1.0222779    -1.3576026
H           0.3032377     0.0744927    -0.8697011
C           2.4407993    -1.0505620     1.1743068
O           2.7367157    -1.5205280     2.2732105
C           4.6691804     1.2394131    -0.8818441
H           4.8080876     2.0631511    -1.5736856
C           3.3955976     0.7405203    -0.4898154
H           2.4612912     1.1632272    -0.8388962
C           3.4726514    -0.3056922     0.4038867
S           5.1393673    -0.6677208     0.7876744
C           5.7014184     0.5656995    -0.2816652
H           6.7633113     0.7345437    -0.4050756
19
262_C7H9NOS_1-0-9-15 (-135,) energy =    -800.3129605
N           1.1636104    -1.2406159     0.6574436
C           0.0931788    -1.1075779     1.6376100
H          -0.3497862    -0.1012077     1.5880150
H          -0.6999691    -1.8418189     1.4492415
H           0.5027573    -1.2826464     2.6320646
C           0.7618345    -0.9935410    -0.7165926
H          -0.0356412    -1.6985592    -0.9831181
H           1.6009698    -1.1567110    -1.3936216
H           0.3682348     0.0240581    -0.8713302
C           2.4733302    -1.1790006     1.1141569
O           2.7962788    -1.6966108     2.1819935
C           4.6017189     1.2826896    -0.8454047
H           4.7057547     2.1319727    -1.5119918
C           3.3517728     0.7064622    -0.4870025
H           2.4025597     1.0861877    -0.8437829
C           3.4718528    -0.3577077     0.3812039
S           5.1519609    -0.6452803     0.7755490
C           5.6604324     0.6470965    -0.2489940
H           6.7131140     0.8772169    -0.3507930
19
262_C7H9NOS_1-0-9-15 (-120,) energy =    -800.3075125
N           1.1615460    -1.3406661     0.6404355
C           0.1592155    -0.9803017     1.6370978
H          -0.0927903     0.0905053     1.5734668
H          -0.7590105    -1.5592765     1.4815361
H           0.5477335    -1.2070093     2.6303787
C           0.7551447    -1.0890901    -0.7330511
H          -0.0830003    -1.7530420    -0.9798885
H           1.5759261    -1.3087771    -1.4176490
H           0.4149693    -0.0541852    -0.9032050
C           2.4995005    -1.3067588     1.0491274
O           2.8544606    -1.9023624     2.0622979
C           4.5300554     1.3234149    -0.7881771
H           4.6015323     2.2015279    -1.4207925
C           3.3051812     0.6786979    -0.4640698
H           2.3436721     1.0258469    -0.8202169
C           3.4658080    -0.4108220     0.3661980
S           5.1556932    -0.6415400     0.7606329
C           5.6119007     0.7121981    -0.2069982
H           6.6535611     0.9947308    -0.2888487
19
262_C7H9NOS_1-0-9-15 (-105,) energy =    -800.3049308
N           1.0861047    -0.7169205     0.1711984
C           0.4005552    -0.4639462     1.4497647
H          -0.5448447     0.0502974     1.2488190
H           0.1903870    -1.3924114     2.0046295
H           1.0171860     0.1874050     2.0777916
C           0.2701413    -1.6022645    -0.6753332
H           0.0477743    -2.5684225    -0.1995370
H           0.7928207    -1.7899375    -1.6178337
H          -0.6704397    -1.0888793    -0.8996135
C           2.3868237    -1.3043823     0.4145882
O           2.5475741    -2.4830856     0.6871208
C           4.7741651     1.5129152    -0.2874128
H           4.9665697     2.5292185    -0.6132673
C           3.4819418     0.9301553    -0.2178001
H           2.5573034     1.4263583    -0.4854320
C           3.5042561    -0.3776672     0.2210444
S           5.1384289    -0.9056598     0.5515314
C           5.7621448     0.6397719     0.0989636
H           6.8284433     0.8234630     0.1339910
19
262_C7H9NOS_1-0-9-15 (-90,) energy =    -800.3087181
N           1.0977846    -0.7866124     0.0819023
C           0.5137736    -0.3586124     1.3648032
H          -0.4091371     0.1976688     1.1714909
H           0.2794730    -1.2153713     2.0167025
H           1.2098888     0.3016581     1.8903574
C           0.1854042    -1.7153793    -0.6014196
H          -0.0488173    -2.6060111    -0.0012131
H           0.6337891    -2.0431301    -1.5423156
H          -0.7428378    -1.1785735    -0.8221906
C           2.3987132    -1.3602418     0.2528868
O           2.5963879    -2.5641940     0.3237560
C           4.7531001     1.5510770    -0.1604548
H           4.9370949     2.5899496    -0.4116877
C           3.4693418     0.9435320    -0.1736801
H           2.5491734     1.4458360    -0.4466547
C           3.5010915    -0.3904640     0.1730297
S           5.1326698    -0.9142296     0.5155517
C           5.7439411     0.6695696     0.1957387
H           6.8054706     0.8657095     0.2756451
19
262_C7H9NOS_1-0-9-15 (-75,) energy =    -800.3132760
N           1.1015802    -0.8677299     0.0378202
C           0.5975612    -0.2788752     1.2879506
H          -0.2919523     0.3230639     1.0747397
H           0.3259249    -1.0559320     2.0196785
H           1.3559728     0.3694280     1.7325105
C           0.1295867    -1.8141744    -0.5204976
H          -0.0888112    -2.6487445     0.1611466
H           0.5155587    -2.2287382    -1.4533916
H          -0.7975647    -1.2694725    -0.7255823
C           2.4082557    -1.4045350     0.1109889
O           2.6427951    -2.6011479     0.0010505
C           4.7336582     1.5651257    -0.0588552
H           4.9099680     2.6188640    -0.2455557
C           3.4558858     0.9472079    -0.1339950
H           2.5399740     1.4614726    -0.4006081
C           3.4936677    -0.4036574     0.1344774
S           5.1237622    -0.9316672     0.4717522
C           5.7264666     0.6744164     0.2645438
H           6.7837965     0.8745853     0.3805353
19
262_C7H9NOS_1-0-9-15 (-60,) energy =    -800.3169042
N           1.0833272    -0.9233007     0.0197210
C           0.6317301    -0.1963819     1.2109776
H          -0.2127999     0.4519764     0.9528500
H           0.3041659    -0.8929484     1.9982078
H           1.4372340     0.4213860     1.6088362
C           0.0855320    -1.8832185    -0.4544816
H          -0.1014545    -2.6854542     0.2740832
H           0.4303060    -2.3408738    -1.3822227
H          -0.8501516    -1.3453579    -0.6377811
C           2.3975495    -1.4014184    -0.0182583
O           2.6655495    -2.5701440    -0.2783828
C           4.7137846     1.5915392     0.0233935
H           4.8921451     2.6538775    -0.1032931
C           3.4364536     0.9785425    -0.1008773
H           2.5286788     1.5133349    -0.3559671
C           3.4692359    -0.3842384     0.0965296
S           5.0955290    -0.9302764     0.4192652
C           5.7015426     0.6844212     0.3116568
H           6.7565472     0.8772867     0.4566655
19
262_C7H9NOS_1-0-9-15 (-45,) energy =    -800.3189900
N           1.0691189    -0.9843285     0.0429525
C           0.6454370    -0.1415014     1.1596646
H          -0.1245127     0.5681549     0.8336551
H           0.2219456    -0.7577839     1.9668991
H           1.4898934     0.4162914     1.5617022
C           0.0565766    -1.9482723    -0.3787339
H          -0.1251190    -2.7156894     0.3878902
H           0.3865794    -2.4477389    -1.2892650
H          -0.8791519    -1.4122398    -0.5688113
C           2.3857869    -1.3913081    -0.1178165
O           2.6767677    -2.5210829    -0.5045693
C           4.7024128     1.6037592     0.0866021
H           4.8832030     2.6706041     0.0118082
C           3.4219390     1.0023412    -0.0665995
H           2.5194701     1.5572216    -0.2971435
C           3.4474576    -0.3681827     0.0671090
S           5.0731152    -0.9343995     0.3562178
C           5.6864187     0.6808124     0.3315175
H           6.7413701     0.8620783     0.4909365
19
262_C7H9NOS_1-0-9-15 (-30,) energy =    -800.3198199
N           1.0783150    -1.0638733     0.0881412
C           0.6561091    -0.1129815     1.1087643
H           0.0043898     0.6632991     0.6859421
H           0.0922785    -0.6371676     1.8929202
H           1.5187625     0.3631675     1.5718766
C           0.0564170    -2.0233411    -0.3129875
H          -0.1694139    -2.7346533     0.4946346
H           0.4100386    -2.5840965    -1.1770851
H          -0.8614557    -1.4823959    -0.5685414
C           2.3891482    -1.3937290    -0.1866504
O           2.6971356    -2.4838734    -0.6688479
C           4.7014901     1.6009653     0.1480653
H           4.8806809     2.6706234     0.1335971
C           3.4165977     1.0091470    -0.0099033
H           2.5130824     1.5815428    -0.1868919
C           3.4422333    -0.3670738     0.0426683
S           5.0751816    -0.9479019     0.2545057
C           5.6896248     0.6656509     0.3146467
H           6.7477142     0.8376887     0.4631766
19
262_C7H9NOS_1-0-9-15 (-15,) energy =    -800.3198579
N           1.0821075    -1.1354927     0.1613799
C           0.6552816    -0.0888301     1.0760995
H           0.1297531     0.7251745     0.5559722
H          -0.0364589    -0.5173433     1.8119714
H           1.5072132     0.3250936     1.6140578
C           0.0455257    -2.0766175    -0.2414405
H          -0.3057301    -2.6654360     0.6172977
H           0.4571870    -2.7530298    -0.9885805
H          -0.8096219    -1.5317336    -0.6604400
C           2.3768339    -1.3929972    -0.2288585
O           2.6891338    -2.4446046    -0.7903955
C           4.7035976     1.5849807     0.2067621
H           4.8864428     2.6529395     0.2571875
C           3.4097813     1.0083325     0.0658564
H           2.5064244     1.5985661    -0.0332814
C           3.4288628    -0.3689914     0.0246340
S           5.0684132    -0.9650046     0.1226071
C           5.6930371     0.6385271     0.2668076
H           6.7573088     0.7976694     0.3820251
19
262_C7H9NOS_1-0-9-15 (0,) energy =    -800.3192727
N           1.0898828    -1.1921381     0.2237234
C           0.6418473    -0.0735490     1.0357469
H           0.2039823     0.7357859     0.4323632
H          -0.1303518    -0.4305600     1.7259713
H           1.4638857     0.3277548     1.6284428
C           0.0528991    -2.1363640    -0.1750433
H          -0.3974972    -2.6009584     0.7112478
H           0.5064960    -2.9051402    -0.7978797
H          -0.7394203    -1.6250394    -0.7385116
C           2.3578768    -1.3719309    -0.2804111
O           2.6634438    -2.3800397    -0.9215048
C           4.7150995     1.5710490     0.2674657
H           4.9084595     2.6315483     0.3878894
C           3.4111894     1.0137547     0.1388248
H           2.5137035     1.6195370     0.1159665
C           3.4150898    -0.3576113    -0.0012636
S           5.0538016    -0.9674037    -0.0161363
C           5.6975599     0.6172486     0.2192913
H           6.7667546     0.7616775     0.3046854
19
262_C7H9NOS_1-0-9-15 (15,) energy =    -800.3198579
N           1.0266484    -1.0421842     0.1347812
C           0.4895864     0.2732305     0.4440245
H          -0.4601307     0.4059759    -0.0889403
H           0.2912083     0.3961410     1.5186683
H           1.1728715     1.0560524     0.1171721
C           0.0472496    -2.1185255     0.0660538
H          -0.5327556    -2.1540967     0.9966786
H           0.5718222    -3.0610925    -0.0809539
H          -0.6485305    -1.9638078    -0.7702957
C           2.3231407    -1.3227294    -0.2331254
O           2.6378135    -2.4063286    -0.7286150
C           4.8048841     1.3591426     0.8254027
H           5.1209370     2.1580451     1.4875021
C           3.5553971     0.6861433     0.9357558
H           2.8335634     0.9023178     1.7145239
C           3.3780164    -0.2929785    -0.0176358
S           4.7866844    -0.4147938    -1.0441734
C           5.5658439     0.8805183    -0.2091215
H           6.5461521     1.2156587    -0.5220979
19
262_C7H9NOS_1-0-9-15 (30,) energy =    -800.3198199
N           1.0646608    -1.0537989     0.2174396
C           0.4819163     0.2703944     0.3937100
H          -0.3793522     0.3885993    -0.2784601
H           0.1292993     0.4175184     1.4233438
H           1.2079527     1.0456170     0.1543992
C           0.0966344    -2.1404510     0.1287870
H          -0.5947405    -2.0735838     0.9761059
H           0.6234828    -3.0933334     0.1534429
H          -0.4850315    -2.0885623    -0.8029804
C           2.3276047    -1.2982766    -0.2803721
O           2.6071970    -2.3515789    -0.8532186
C           4.8294281     1.3221293     0.8602937
H           5.1632668     2.0747323     1.5664326
C           3.5923672     0.6262107     0.9674682
H           2.8935315     0.7724937     1.7832701
C           3.3909347    -0.2830392    -0.0474778
S           4.7577858    -0.3110582    -1.1336349
C           5.5556311     0.9293733    -0.2339412
H           6.5206049     1.2978806    -0.5567901
19
262_C7H9NOS_1-0-9-15 (45,) energy =    -800.3189898
N           1.1020744    -1.0473254     0.2911292
C           0.4657296     0.2682236     0.3326907
H          -0.2857042     0.3567342    -0.4662079
H          -0.0401242     0.4190051     1.2939588
H           1.2045764     1.0566382     0.1967450
C           0.1508146    -2.1521143     0.2069912
H          -0.5795062    -2.0472031     1.0160732
H           0.6817672    -3.0980891     0.3101562
H          -0.3846149    -2.1611984    -0.7536746
C           2.3222056    -1.2588070    -0.3341068
O           2.5524326    -2.2727392    -0.9896784
C           4.8612571     1.2776677     0.8898690
H           5.2128545     1.9862932     1.6319372
C           3.6277551     0.5745062     0.9847645
H           2.9441717     0.6673943     1.8211803
C           3.4040557    -0.2729186    -0.0775529
S           4.7415123    -0.2311260    -1.1984046
C           5.5618415     0.9520681    -0.2429346
H           6.5203994     1.3382651    -0.5642304
19
262_C7H9NOS_1-0-9-15 (60,) energy =    -800.3169042
N           1.1128239    -1.0047388     0.3579571
C           0.4135757     0.2822374     0.2789217
H          -0.2566537     0.3144811    -0.5939746
H          -0.1894970     0.4339842     1.1809140
H           1.1291135     1.1007182     0.1960500
C           0.1909815    -2.1401718     0.3065050
H          -0.5404298    -2.0271211     1.1131563
H           0.7459056    -3.0684860     0.4456981
H          -0.3431667    -2.2012209    -0.6528272
C           2.2795067    -1.1832417    -0.3937167
O           2.4374368    -2.1384037    -1.1472394
C           4.8796804     1.2284671     0.9274084
H           5.2472333     1.8959802     1.6992283
C           3.6357637     0.5425173     0.9962653
H           2.9521864     0.6064813     1.8351738
C           3.3959595    -0.2534734    -0.1019955
S           4.7261792    -0.1793763    -1.2299741
C           5.5704890     0.9424537    -0.2226547
H           6.5366775     1.3228734    -0.5276862
19
262_C7H9NOS_1-0-9-15 (75,) energy =    -800.3132760
N           1.1323934    -0.9511666     0.3798029
C           0.3436757     0.2749446     0.1842654
H          -0.2659696     0.2212463    -0.7314181
H          -0.3257848     0.4179743     1.0388956
H           1.0046288     1.1416647     0.1132818
C           0.2640258    -2.1336125     0.3815504
H          -0.4520142    -2.0295803     1.2030374
H           0.8654929    -3.0301050     0.5417354
H          -0.2881583    -2.2551647    -0.5614068
C           2.2467661    -1.0918140    -0.4800332
O           2.3205560    -1.9641003    -1.3359852
C           4.9215689     1.1548523     0.9530449
H           5.3063162     1.7739325     1.7561710
C           3.6601576     0.5007699     0.9879039
H           2.9702167     0.5418147     1.8226121
C           3.4034661    -0.2362832    -0.1475169
S           4.7349470    -0.1395155    -1.2733695
C           5.6079095     0.9047122    -0.2088454
H           6.5870656     1.2693362    -0.4912935
19
262_C7H9NOS_1-0-9-15 (90,) energy =    -800.3087181
N           1.1266260    -0.8643244     0.4111347
C           0.2282699     0.2631165     0.1079056
H          -0.3324397     0.1028542    -0.8268880
H          -0.4859169     0.3841352     0.9288115
H           0.8064599     1.1872074     0.0157738
C           0.3574511    -2.1153344     0.4834890
H          -0.3557176    -2.0281042     1.3095175
H           1.0329419    -2.9490501     0.6893744
H          -0.1914168    -2.3356576    -0.4430849
C           2.1982459    -0.9615838    -0.5338829
O           2.1775909    -1.7154251    -1.4955876
C           4.9708061     1.0755926     0.9998019
H           5.3810099     1.6394728     1.8304422
C           3.6850832     0.4720380     1.0057196
H           2.9912569     0.4996511     1.8372138
C           3.3996898    -0.1986062    -0.1644983
S           4.7314642    -0.0948724    -1.2911631
C           5.6463320     0.8548870    -0.1752386
H           6.6406295     1.1915125    -0.4394239
19
262_C7H9NOS_1-0-9-15 (105,) energy =    -800.3049309
N           1.0966653    -0.7542876     0.4087111
C           0.0783016     0.2351425     0.0181948
H          -0.4394349    -0.0405153    -0.9145759
H          -0.6604496     0.3189739     0.8218512
H           0.5476843     1.2149209    -0.1181683
C           0.4775883    -2.0781647     0.5823029
H          -0.2488671    -2.0114485     1.3986530
H           1.2446401    -2.8058229     0.8630852
H          -0.0317201    -2.4378249    -0.3235523
C           2.1424877    -0.8096807    -0.5911196
O           2.0253113    -1.4074764    -1.6486455
C           5.0260651     0.9614441     1.0457827
H           5.4658908     1.4576332     1.9039334
C           3.7090817     0.4330206     1.0198485
H           3.0087258     0.4599479     1.8454121
C           3.3884952    -0.1549818    -0.1863675
S           4.7258700    -0.0622383    -1.3094653
C           5.6899963     0.7673214    -0.1413374
H           6.7015801     1.0637952    -0.3878588
19
262_C7H9NOS_1-0-9-15 (120,) energy =    -800.3075125
N           0.9152489    -0.8447865    -0.3479792
C          -0.2910241    -0.0250382    -0.3758180
H          -1.1844701    -0.6608636    -0.3813032
H          -0.3409152     0.6330193     0.5065963
H          -0.2898482     0.5787980    -1.2837453
C           1.0260830    -1.7045149     0.8197125
H           0.9235305    -1.1591576     1.7724810
H           1.9822148    -2.2302522     0.8141420
H           0.2242074    -2.4528189     0.7838698
C           2.0332422    -0.3468129    -1.0265259
O           1.9401080     0.0123521    -2.1968164
C           4.9322483     0.4375412     1.2966153
H           5.3410565     0.6023905     2.2876179
C           3.5853735     0.0555606     1.0495194
H           2.8593483    -0.0906904     1.8390465
C           3.2954249    -0.0825155    -0.2917612
S           4.7055552     0.2712562    -1.2669080
C           5.6560869     0.5784640     0.1399145
H           6.6971151     0.8580475     0.0415209
19
262_C7H9NOS_1-0-9-15 (135,) energy =    -800.3129606
N           0.9269283    -0.7633990    -0.2883416
C          -0.3722366    -0.1214351    -0.4441859
H          -1.1621215    -0.8704399    -0.5811214
H          -0.6146152     0.4760757     0.4478311
H          -0.3438929     0.5216083    -1.3234100
C           1.0415555    -1.6259275     0.8749881
H           0.8816172    -1.0888167     1.8238333
H           2.0209268    -2.1049076     0.8985356
H           0.2776749    -2.4108801     0.8087396
C           2.0070885    -0.2161850    -0.9677241
O           1.8780990     0.2311553    -2.1060316
C           5.0115708     0.3784803     1.2793990
H           5.4577149     0.5036845     2.2600761
C           3.6406144     0.0645681     1.0677722
H           2.9313738    -0.0581802     1.8767193
C           3.3042710    -0.0344086    -0.2655529
S           4.6965261     0.2790441    -1.2776464
C           5.7049332     0.5105208     0.1036592
H           6.7547163     0.7414532    -0.0231458
19
262_C7H9NOS_1-0-9-15 (150,) energy =    -800.3172092
N           0.9265640    -0.6595139    -0.2224224
C          -0.4241084    -0.2044847    -0.5186106
H          -1.0704346    -1.0445893    -0.8054145
H          -0.8610841     0.2788856     0.3666669
H          -0.3808619     0.5030201    -1.3455341
C           1.0548029    -1.5621621     0.9075208
H           0.8297535    -1.0706982     1.8667738
H           2.0606897    -1.9793700     0.9498820
H           0.3447436    -2.3900372     0.7846896
C           1.9767469    -0.0956031    -0.9200929
O           1.8173898     0.3996894    -2.0358189
C           5.0792517     0.3386722     1.2291408
H           5.5609976     0.4440781     2.1952135
C           3.6864082     0.1024871     1.0595770
H           2.9927035     0.0305847     1.8885831
C           3.3066924     0.0117675    -0.2620227
S           4.6813597     0.2455022    -1.3163092
C           5.7436878     0.4240967     0.0329779
H           6.8009040     0.5911763    -0.1273415
19
262_C7H9NOS_1-0-9-15 (165,) energy =    -800.3195954
N           0.9044298    -0.5430262    -0.1202860
C          -0.4589981    -0.2887591    -0.5640116
H          -0.9037059    -1.1846307    -1.0195367
H          -1.0767644     0.0053592     0.2938494
H          -0.4448392     0.5094888    -1.3045444
C           1.0416213    -1.4972623     0.9678796
H           0.7418048    -1.0663683     1.9342883
H           2.0693483    -1.8509409     1.0411330
H           0.3948551    -2.3623982     0.7722195
C           1.9373690     0.0219946    -0.8346930
O           1.7577956     0.5408721    -1.9373600
C           5.1305528     0.2958482     1.2074566
H           5.6498247     0.3744171     2.1565008
C           3.7215386     0.1354754     1.0853794
H           3.0510523     0.1062876     1.9363430
C           3.2937202     0.0624857    -0.2222019
S           4.6406828     0.2259420    -1.3225215
C           5.7575297     0.3454355    -0.0104419
H           6.8162104     0.4530926    -0.2075598
19
262_C7H9NOS_1-0-9-15 (180,) energy =    -800.3195699
N           0.8566788    -0.4496054    -0.0584403
C          -0.4761244    -0.3978222    -0.6482397
H          -0.7074540    -1.3302626    -1.1826502
H          -1.2213982    -0.2553659     0.1426116
H          -0.5204385     0.4305803    -1.3531411
C           1.0128707    -1.4206340     1.0160730
H           0.6525767    -1.0254830     1.9759854
H           2.0550769    -1.7171022     1.1233691
H           0.4270779    -2.3184188     0.7808107
C           1.8839593     0.1390852    -0.7622407
O           1.6943092     0.6875789    -1.8492137
C           5.1685835     0.2362527     1.1543746
H           5.7312290     0.2732020     2.0809667
C           3.7493664     0.1437254     1.0914531
H           3.1157903     0.1362471     1.9708556
C           3.2625662     0.1099601    -0.1972061
S           4.5669983     0.2359945    -1.3521403
C           5.7439943     0.2779892    -0.0887613
H           6.7972477     0.3360349    -0.3306843
