19
262_C7H9NOS_0-9-15-16 (-165,) energy =    -800.3197191
N           1.0041539    -1.0435802     0.1861637
C           0.4520896     0.2704210     0.4820723
H          -0.5102910     0.3811501    -0.0335093
H           0.2750429     0.4098355     1.5579813
H           1.1157589     1.0576052     0.1262078
C           0.0304036    -2.1251978     0.1094971
H          -0.5726148    -2.1384084     1.0250423
H           0.5591823    -3.0704842    -0.0010636
H          -0.6432997    -1.9962019    -0.7496052
C           2.2709491    -1.2888331    -0.2959524
O           2.5522639    -2.3427113    -0.8698613
C           4.8041320     1.3306348     0.7963602
H           5.1278412     2.1306105     1.4534822
C           3.5292926     0.7040677     0.8796991
H           2.7958335     0.9583948     1.6352517
C           3.3446881    -0.2840588    -0.0641188
S           4.7809375    -0.4772407    -1.0413156
C           5.5794936     0.8039311    -0.2039337
H           6.5816926     1.0965946    -0.4891213
19
262_C7H9NOS_0-9-15-16 (-150,) energy =    -800.3197848
N           1.0282159    -1.0390478     0.1658380
C           0.4944690     0.2963921     0.3864874
H          -0.3909610     0.4434097    -0.2460334
H           0.1888165     0.4429495     1.4320329
H           1.2310132     1.0540979     0.1240024
C           0.0346904    -2.1025547     0.1017499
H          -0.5930982    -2.0749845     1.0006117
H           0.5473036    -3.0608138     0.0348521
H          -0.6137152    -1.9859912    -0.7781465
C           2.3185213    -1.3402376    -0.2093561
O           2.6201151    -2.4330573    -0.6897644
C           4.8133255     1.3192202     0.8603731
H           5.1523164     2.0791333     1.5561223
C           3.5888474     0.6056847     0.9988966
H           2.9042206     0.7488500     1.8274398
C           3.3779368    -0.3117325    -0.0058713
S           4.7174345    -0.3209674    -1.1255155
C           5.5187427     0.9348998    -0.2498266
H           6.4687089     1.3179937    -0.5989766
19
262_C7H9NOS_0-9-15-16 (-135,) energy =    -800.3187509
N           1.0246428    -1.0492548     0.1398100
C           0.5156581     0.3038378     0.2989460
H          -0.2923040     0.4798438    -0.4239053
H           0.1057369     0.4600422     1.3065801
H           1.3032263     1.0341592     0.1221992
C           0.0109941    -2.0936234     0.0815991
H          -0.6255927    -2.0463786     0.9739504
H           0.5076689    -3.0611298     0.0293305
H          -0.6264240    -1.9700655    -0.8048826
C           2.3308448    -1.3968997    -0.1173669
O           2.6503621    -2.5263648    -0.4849230
C           4.8176531     1.2863254     0.9071337
H           5.1878257     2.0065560     1.6287123
C           3.6435737     0.5007625     1.0991345
H           3.0257626     0.5478918     1.9896529
C           3.3825614    -0.3478419     0.0496645
S           4.5986676    -0.1924855    -1.1914995
C           5.4283137     1.0307746    -0.2914783
H           6.3203449     1.4897146    -0.6970209
19
262_C7H9NOS_0-9-15-16 (-120,) energy =    -800.3172258
N           1.0229591    -1.0485057     0.1288265
C           0.5359229     0.3185307     0.2165121
H          -0.1782822     0.5135200    -0.5951170
H           0.0177901     0.4888075     1.1703021
H           1.3601864     1.0246327     0.1339886
C          -0.0058498    -2.0785146     0.0856699
H          -0.6618608    -1.9915932     0.9610242
H           0.4778703    -3.0540174     0.0790524
H          -0.6209114    -1.9744385    -0.8185897
C           2.3353679    -1.4277109    -0.0220024
O           2.6663504    -2.5864369    -0.2610645
C           4.8571422     1.2537149     0.9218735
H           5.2860139     1.9253068     1.6577515
C           3.7350571     0.4084467     1.1747474
H           3.2160296     0.3611276     2.1264334
C           3.3837477    -0.3605217     0.0933302
S           4.4378857    -0.0486307    -1.2604653
C           5.3352025     1.1242571    -0.3532280
H           6.1635565     1.6456317    -0.8142433
19
262_C7H9NOS_0-9-15-16 (-105,) energy =    -800.3159688
N           1.0197431    -1.0520659     0.1112415
C           0.5410831     0.3202471     0.1247701
H          -0.0792736     0.5152711    -0.7606678
H          -0.0735754     0.5046743     1.0163691
H           1.3786600     1.0158814     0.1275665
C          -0.0105749    -2.0803309     0.0738784
H          -0.6785476    -1.9802492     0.9390953
H           0.4729240    -3.0559210     0.0919324
H          -0.6129346    -1.9879832    -0.8397088
C           2.3374080    -1.4368558     0.0808106
O           2.6867652    -2.6099828    -0.0083459
C           4.9108639     1.2200151     0.9489753
H           5.4108095     1.8322842     1.6917368
C           3.8390306     0.3241466     1.2487540
H           3.4347224     0.1751218     2.2445155
C           3.3737750    -0.3469196     0.1473261
S           4.2566027     0.1171916    -1.2836729
C           5.2415642     1.2216223    -0.3772058
H           6.0058026     1.8000745    -0.8788908
19
262_C7H9NOS_0-9-15-16 (-90,) energy =    -800.3155303
N           1.0064912    -1.0384652     0.0746707
C           0.5254050     0.3321140     0.0268170
H          -0.0156285     0.5185160    -0.9106904
H          -0.1641363     0.5224151     0.8606268
H           1.3582760     1.0301733     0.0977064
C          -0.0174453    -2.0727505     0.0389519
H          -0.6835644    -1.9857513     0.9076544
H           0.4726800    -3.0451945     0.0530167
H          -0.6230826    -1.9758091    -0.8713286
C           2.3223444    -1.4126797     0.1841531
O           2.6785753    -2.5837967     0.2643318
C           4.9979693     1.1681662     0.9504167
H           5.5881176     1.7108602     1.6809910
C           3.9588514     0.2491167     1.2931629
H           3.6777563     0.0052696     2.3121323
C           3.3516572    -0.3113874     0.2000999
S           4.0716281     0.2746696    -1.2786670
C           5.1745052     1.2871857    -0.3992550
H           5.8861667     1.9021533    -0.9337220
19
262_C7H9NOS_0-9-15-16 (-75,) energy =    -800.3160834
N           0.9851664    -1.0330266     0.0546943
C           0.4786386     0.3252324    -0.0558048
H           0.0205981     0.4931255    -1.0396590
H          -0.2875600     0.5039059     0.7111349
H           1.2835470     1.0450815     0.0849571
C          -0.0186202    -2.0871261     0.0252802
H          -0.6891554    -2.0120267     0.8923340
H           0.4881664    -3.0508114     0.0482914
H          -0.6228429    -2.0034904    -0.8866325
C           2.2907044    -1.3728491     0.3103527
O           2.6409220    -2.5209301     0.5652387
C           5.0846562     1.0986117     0.9549668
H           5.7682880     1.5638852     1.6568214
C           4.0683249     0.1703113     1.3337522
H           3.9034159    -0.1696879     2.3503207
C           3.3155285    -0.2709060     0.2767635
S           3.8867897     0.4265291    -1.2216118
C           5.1129833     1.3319535    -0.3916123
H           5.7804097     1.9750626    -0.9496384
19
262_C7H9NOS_0-9-15-16 (-60,) energy =    -800.3171608
N           0.9615747    -1.0124104     0.0370766
C           0.4155201     0.3253968    -0.1334731
H           0.0146726     0.4605726    -1.1465462
H          -0.4033525     0.4884685     0.5811381
H           1.1813165     1.0784922     0.0444244
C          -0.0161788    -2.0916723     0.0314562
H          -0.6781261    -2.0311910     0.9068988
H           0.5106802    -3.0444815     0.0552959
H          -0.6320742    -2.0252076    -0.8732567
C           2.2447598    -1.3007424     0.4375556
O           2.5710734    -2.4083992     0.8555535
C           5.1502057     1.0519648     0.9488107
H           5.9150681     1.4448855     1.6098144
C           4.1493606     0.1223143     1.3562708
H           4.0768980    -0.3014474     2.3515919
C           3.2750516    -0.2131632     0.3536421
S           3.7210721     0.5835481    -1.1405255
C           5.0522846     1.3875112    -0.3738489
H           5.6831330     2.0541859    -0.9467705
19
262_C7H9NOS_0-9-15-16 (-45,) energy =    -800.3180673
N           0.9618045    -0.9976233     0.0142916
C           0.3834245     0.3187002    -0.2181110
H           0.0634848     0.4336158    -1.2618788
H          -0.4973457     0.4548644     0.4248561
H           1.0998629     1.1036506     0.0176020
C           0.0053290    -2.0964937     0.0334087
H          -0.6523012    -2.0402122     0.9127410
H           0.5474351    -3.0404978     0.0658130
H          -0.6158349    -2.0513370    -0.8684152
C           2.2161189    -1.2355063     0.5297829
O           2.5065713    -2.3000137     1.0715879
C           5.2241449     0.9897974     0.9324832
H           6.0566715     1.3059529     1.5514778
C           4.2358858     0.0535270     1.3479333
H           4.2341475    -0.4563416     2.3043220
C           3.2658975    -0.1774387     0.4031173
S           3.6024015     0.7401361    -1.0516304
C           5.0193703     1.4412299    -0.3436742
H           5.6183703     2.1391319    -0.9137945
19
262_C7H9NOS_0-9-15-16 (-30,) energy =    -800.3182717
N           0.9531793    -0.9836741     0.0088339
C           0.3511588     0.3074413    -0.2991357
H           0.1075297     0.3917084    -1.3661829
H          -0.5796633     0.4248734     0.2727409
H           1.0169169     1.1240807    -0.0253649
C           0.0134809    -2.0970107     0.0568770
H          -0.6613141    -2.0185853     0.9215305
H           0.5676999    -3.0311754     0.1352378
H          -0.5904017    -2.0955884    -0.8574756
C           2.1785233    -1.1693879     0.6129383
O           2.4351015    -2.1916697     1.2473695
C           5.2904108     0.9129511     0.9136360
H           6.1840906     1.1423868     1.4835636
C           4.3075095    -0.0290662     1.3238420
H           4.3625673    -0.6294807     2.2239449
C           3.2532538    -0.1447742     0.4486130
S           3.4957708     0.9098472    -0.9320129
C           4.9928235     1.4949203    -0.2898658
H           5.5638054     2.2322182    -0.8389721
19
262_C7H9NOS_0-9-15-16 (-15,) energy =    -800.3177386
N           0.9174396    -0.9359560     0.0945320
C           0.3574382     0.3118628    -0.4053666
H           0.3657698     0.3610450    -1.5028950
H          -0.6836869     0.3934609    -0.0705688
H           0.8953929     1.1725398    -0.0084931
C          -0.0208799    -2.0495805     0.1679856
H          -0.7750752    -1.8874015     0.9511248
H           0.5274683    -2.9617490     0.3968628
H          -0.5353864    -2.1535985    -0.7943194
C           2.1341886    -1.0888085     0.7209570
O           2.3767040    -2.0830304     1.4064653
C           5.3553245     0.8239924     0.9186218
H           6.3135637     0.9348315     1.4141919
C           4.3753442    -0.1338434     1.2924386
H           4.4880353    -0.8608806     2.0869812
C           3.2308304    -0.0903743     0.5284869
S           3.3794783     1.1626524    -0.6942849
C           4.9616494     1.5924506    -0.1443825
H           5.5038851     2.3902623    -0.6351339
19
262_C7H9NOS_0-9-15-16 (0,) energy =    -800.3171630
N           0.8954441    -0.8706727     0.1383436
C           0.4494329     0.2897759    -0.6205112
H           0.9591231     0.3802642    -1.5878208
H          -0.6189433     0.1770573    -0.8176037
H           0.5817750     1.2217140    -0.0606426
C          -0.0807930    -1.9418340     0.3153020
H          -0.9716222    -1.5651620     0.8333013
H           0.3777490    -2.7303225     0.9085334
H          -0.3882065    -2.3491693    -0.6567874
C           2.1568716    -1.0600631     0.6539605
O           2.4430000    -2.0820446     1.2816443
C           5.4252483     0.7733453     0.7457918
H           6.4546343     0.7589567     1.0867757
C           4.4936084    -0.2676442     0.9961206
H           4.7074020    -1.1752574     1.5458981
C           3.2398069    -0.0422337     0.4703771
S           3.2228083     1.5102421    -0.3588410
C           4.8821185     1.8024813     0.0241272
H           5.3572318     2.7170058    -0.3067315
19
262_C7H9NOS_0-9-15-16 (15,) energy =    -800.3177385
N           0.8856210    -0.8819093     0.1913121
C           0.4953345     0.1054178    -0.8052892
H           1.3583573     0.4596686    -1.3686369
H          -0.1923742    -0.3631372    -1.5195932
H          -0.0167910     0.9680332    -0.3572994
C          -0.1499351    -1.8453118     0.5455581
H          -1.0726259    -1.3093129     0.7964010
H           0.1853832    -2.4288102     1.4012321
H          -0.3605396    -2.5317315    -0.2868495
C           2.1674054    -1.1397024     0.6235805
O           2.4465945    -2.1950960     1.1940392
C           5.4504019     0.6753652     0.6494692
H           6.5204179     0.6088340     0.8129828
C           4.5645919    -0.4315477     0.7365725
H           4.8559622    -1.4422147     0.9939307
C           3.2486043    -0.1160060     0.4834100
S           3.1043083     1.6013205     0.1407367
C           4.8046977     1.8432305     0.3418407
H           5.2264253     2.8319401     0.2155243
19
262_C7H9NOS_0-9-15-16 (30,) energy =    -800.3182717
N           0.9894176    -1.1107584     0.2698501
C           0.6930294    -0.5465417     1.5806006
H           0.7686468    -1.3055666     2.3700365
H           1.3701666     0.2729047     1.8152852
H          -0.3315934    -0.1498426     1.5869794
C          -0.0804892    -1.9204066    -0.2999123
H          -0.4014044    -2.6619026     0.4402997
H           0.2865189    -2.4221018    -1.1940990
H          -0.9485211    -1.3049326    -0.5771071
C           1.9590453    -0.6516958    -0.5961655
O           1.8768579    -0.8345294    -1.8099249
C           5.1386117     1.3018883    -0.1668996
H           5.8638842     1.9748755    -0.6109600
C           3.9529509     0.8687984    -0.8214241
H           3.6682258     1.1402695    -1.8308542
C           3.1762214     0.0281198    -0.0593088
S           3.9431984    -0.2629538     1.4912363
C           5.2740308     0.7670974     1.0866248
H           6.0766276     0.9155829     1.7972135
19
262_C7H9NOS_0-9-15-16 (45,) energy =    -800.3180673
N           0.9940470    -1.1150463     0.2537568
C           0.7029645    -0.4756312     1.5295552
H           0.7041927    -1.2055841     2.3494244
H           1.4340723     0.3002799     1.7496353
H          -0.2909835    -0.0084002     1.4912679
C          -0.0816757    -1.9383000    -0.2827144
H          -0.4160122    -2.6433878     0.4868572
H           0.2850634    -2.4818180    -1.1522911
H          -0.9407236    -1.3248013    -0.5901661
C           2.0079631    -0.7528865    -0.6044036
O           1.9772958    -1.0284269    -1.8019964
C           5.0818026     1.3595341    -0.1028520
H           5.7482348     2.1196168    -0.4957280
C           3.8904538     0.9335400    -0.7548294
H           3.5495983     1.3004659    -1.7159909
C           3.1959752    -0.0257917    -0.0589254
S           4.0524721    -0.4522731     1.4094060
C           5.3061813     0.6946155     1.0726645
H           6.1353809     0.8045047     1.7591468
19
262_C7H9NOS_0-9-15-16 (60,) energy =    -800.3171608
N           0.9853594    -1.1080815     0.2289798
C           0.7110694    -0.4051042     1.4729970
H           0.6299654    -1.1079296     2.3124770
H           1.5003199     0.3124256     1.6908926
H          -0.2399012     0.1398219     1.3922250
C          -0.1008518    -1.9389300    -0.2716954
H          -0.4262515    -2.6313877     0.5137134
H           0.2524750    -2.4963320    -1.1379846
H          -0.9623034    -1.3259904    -0.5724247
C           2.0510083    -0.8611854    -0.6037967
O           2.0822175    -1.2528490    -1.7672964
C           5.0162356     1.4047008    -0.0457581
H           5.6181228     2.2393222    -0.3884908
C           3.8161152     0.9758070    -0.6842920
H           3.4100357     1.4208714    -1.5856828
C           3.2130618    -0.0850659    -0.0573149
S           4.1666361    -0.6088398     1.3147553
C           5.3378528     0.6402734     1.0422770
H           6.1934699     0.7308736     1.6983062
19
262_C7H9NOS_0-9-15-16 (75,) energy =    -800.3160834
N           0.9998601    -1.1061557     0.1961455
C           0.7495502    -0.3408338     1.4066306
H           0.6108805    -1.0066975     2.2688107
H           1.5813009     0.3315153     1.6115982
H          -0.1635361     0.2589808     1.2896809
C          -0.1007987    -1.9407377    -0.2638575
H          -0.4105961    -2.6257897     0.5351381
H           0.2320903    -2.5082234    -1.1317263
H          -0.9659342    -1.3252264    -0.5462158
C           2.1191277    -0.9979522    -0.5917642
O           2.2121099    -1.5342838    -1.6914967
C           4.9591597     1.4329721     0.0037822
H           5.4832956     2.3368288    -0.2873477
C           3.7524504     0.9820746    -0.6115984
H           3.2650646     1.4882431    -1.4377064
C           3.2642124    -0.1757267    -0.0641299
S           4.3232557    -0.7546882     1.2012208
C           5.3922043     0.5969698     0.9947907
H           6.2749688     0.6869712     1.6137149
19
262_C7H9NOS_0-9-15-16 (90,) energy =    -800.3155303
N           1.0137984    -1.0926434     0.1736340
C           0.7721695    -0.2700339     1.3471546
H           0.5446128    -0.8986078     2.2186451
H           1.6465509     0.3393474     1.5709798
H          -0.0848594     0.3954266     1.1751540
C          -0.1013328    -1.9209509    -0.2620919
H          -0.4109548    -2.5961140     0.5460502
H           0.2169102    -2.5027150    -1.1260016
H          -0.9609793    -1.2958185    -0.5380355
C           2.1781486    -1.1141051    -0.5525343
O           2.3216790    -1.7940951    -1.5634035
C           4.8883386     1.4662120     0.0828575
H           5.3271675     2.4323542    -0.1419287
C           3.6712980     0.9923215    -0.4969117
H           3.0870685     1.5512658    -1.2201211
C           3.3137242    -0.2552351    -0.0571617
S           4.4921701    -0.8772240     1.0710970
C           5.4461519     0.5684022     0.9487251
H           6.3602809     0.6620088     1.5196088
19
262_C7H9NOS_0-9-15-16 (105,) energy =    -800.3159687
N           1.0142449    -1.0731148     0.1371973
C           0.7582630    -0.2038624     1.2736025
H           0.4427141    -0.7971831     2.1426728
H           1.6554352     0.3544650     1.5359039
H          -0.0447753     0.5084199     1.0400567
C          -0.1055854    -1.8993907    -0.2912086
H          -0.4116648    -2.5798744     0.5145634
H           0.2047175    -2.4808521    -1.1580922
H          -0.9642018    -1.2683692    -0.5546264
C           2.2174202    -1.2048235    -0.5110722
O           2.4008906    -2.0120093    -1.4171704
C           4.8136876     1.4898884     0.1471475
H           5.1737775     2.5012333    -0.0078696
C           3.5808773     0.9960405    -0.3796989
H           2.9000658     1.5871577    -0.9832639
C           3.3440646    -0.3153864    -0.0571831
S           4.6459301    -0.9650329     0.9049215
C           5.4940503     0.5485391     0.8676258
H           6.4436578     0.6479266     1.3762738
19
262_C7H9NOS_0-9-15-16 (120,) energy =    -800.3172256
N           1.0129227    -1.0570651     0.1277991
C           0.7278223    -0.1378693     1.2175199
H           0.3038975    -0.6875838     2.0689794
H           1.6373168     0.3637195     1.5431279
H          -0.0037321     0.6210640     0.9076927
C          -0.1040822    -1.8887626    -0.2986079
H          -0.4224061    -2.5565992     0.5134886
H           0.2129558    -2.4877618    -1.1508521
H          -0.9564243    -1.2577534    -0.5805090
C           2.2452514    -1.2749054    -0.4404312
O           2.4547732    -2.1854490    -1.2381461
C           4.7752473     1.4862610     0.2040841
H           5.0785770     2.5240196     0.1172988
C           3.5151796     0.9858045    -0.2423224
H           2.7527158     1.5991747    -0.7111085
C           3.3665059    -0.3632152    -0.0368108
S           4.7870962    -1.0379149     0.7168035
C           5.5619621     0.5119553     0.7545280
H           6.5527590     0.6105808     1.1777674
19
262_C7H9NOS_0-9-15-16 (135,) energy =    -800.3187509
N           1.0114782    -1.0495226     0.1201734
C           0.6836584    -0.0890028     1.1619011
H           0.1422173    -0.5959337     1.9719432
H           1.5881208     0.3542060     1.5746750
H           0.0388047     0.7130862     0.7764539
C          -0.0891187    -1.9000840    -0.3120466
H          -0.4311161    -2.5439740     0.5100662
H           0.2541983    -2.5263848    -1.1338545
H          -0.9333586    -1.2806680    -0.6396695
C           2.2718420    -1.3253171    -0.3579326
O           2.5102377    -2.3124117    -1.0519698
C           4.7465496     1.4927358     0.2486248
H           5.0051623     2.5457916     0.2235472
C           3.4626563     0.9812601    -0.1013021
H           2.6370577     1.6013404    -0.4342020
C           3.3793011    -0.3871328    -0.0003349
S           4.8997626    -1.0648201     0.5216484
C           5.6196601     0.5057435     0.6206525
H           6.6464620     0.6108881     0.9453554
19
262_C7H9NOS_0-9-15-16 (150,) energy =    -800.3197842
N           0.9994676    -1.0313596     0.1161263
C           0.6318719    -0.0387794     1.1145855
H          -0.0097438    -0.5061029     1.8733126
H           1.5172996     0.3544247     1.6114641
H           0.0724662     0.7958523     0.6691044
C          -0.0845368    -1.8983256    -0.3264299
H          -0.4424312    -2.5344751     0.4953923
H           0.2796438    -2.5355054    -1.1306610
H          -0.9233328    -1.2877473    -0.6820999
C           2.2832926    -1.3667009    -0.2523138
O           2.5398004    -2.4154893    -0.8441446
C           4.7529815     1.4696046     0.2939085
H           4.9958996     2.5263951     0.3195056
C           3.4455025     0.9611683     0.0488998
H           2.5879614     1.5921454    -0.1564771
C           3.3860395    -0.4142569     0.0620084
S           4.9659563    -1.0983976     0.3512801
C           5.6722502     0.4727587     0.4909885
H           6.7277820     0.5750611     0.7066032
19
262_C7H9NOS_0-9-15-16 (165,) energy =    -800.3197197
N           1.0074873    -1.0081217     0.0962150
C           0.5840785     0.0117785     1.0448204
H          -0.1569202    -0.4183626     1.7307378
H           1.4278018     0.3610529     1.6387708
H           0.1185035     0.8716874     0.5428442
C          -0.0447987    -1.9062596    -0.3623292
H          -0.4050023    -2.5505629     0.4524306
H           0.3490781    -2.5380183    -1.1568504
H          -0.8885569    -1.3155077    -0.7375415
C           2.3117349    -1.3748881    -0.1527456
O           2.5931926    -2.4667097    -0.6503903
C           4.7703736     1.4842760     0.3464120
H           5.0026119     2.5406255     0.4284859
C           3.4500520     0.9719890     0.2078238
H           2.5750153     1.6069801     0.1392041
C           3.4051127    -0.4035165     0.1248850
S           5.0177551    -1.0757458     0.1717521
C           5.7163823     0.4921775     0.3561672
H           6.7887207     0.6003231     0.4551335
19
262_C7H9NOS_0-9-15-16 (180,) energy =    -800.3183440
N           1.0066115    -1.0490970     0.1831999
C           0.4419434     0.2290244     0.5931706
H          -0.5969122     0.2845195     0.2488549
H           0.4426399     0.3561332     1.6850841
H           0.9835656     1.0580093     0.1364681
C           0.0573787    -2.1495115     0.0606739
H          -0.5493794    -2.2048724     0.9713734
H           0.6074420    -3.0793025    -0.0751999
H          -0.6127677    -2.0113705    -0.7997809
C           2.2554168    -1.2250040    -0.3683318
O           2.5311002    -2.2365814    -1.0187319
C           4.8055866     1.3800491     0.7479208
H           5.1076402     2.2323633     1.3471005
C           3.4905275     0.8375910     0.7543318
H           2.7076449     1.2246989     1.3927380
C           3.3388612    -0.2398070    -0.0951600
S           4.8586395    -0.6201998    -0.8762398
C           5.6475945     0.6981465    -0.0916646
H           6.6937525     0.8981783    -0.2845434
