19
198_C7H9NOS_0-6-11-18 (-165,) energy =    -800.2266825
C          -0.1665292    -1.3531221    -0.2640464
H          -0.2318787    -2.3567071    -0.6744167
C          -1.2930050    -0.5346252    -0.1746545
H          -2.2527146    -0.8946538    -0.5348602
C          -1.1876372     0.7411265     0.3856722
H          -2.0675222     1.3747341     0.4570117
C           1.0595255    -0.8766673     0.2051599
C           0.0418141     1.2021944     0.8622101
H           0.1181581     2.1904416     1.3072113
C           1.1756075     0.3925794     0.7742231
H           2.1383031     0.7217815     1.1507879
S           2.5282619    -1.9509064     0.0925681
N           2.1565315    -3.4561321     0.1297267
C           3.0471813    -1.7426445    -1.6215469
H           1.8514137    -3.7150451     1.0712622
H           2.2466577    -2.0614753    -2.2897432
H           3.9294851    -2.3720429    -1.7539176
H           3.2960161    -0.6907888    -1.7724792
O           3.5376131    -1.3250119     0.9840273
19
198_C7H9NOS_0-6-11-18 (-150,) energy =    -800.2262151
C           1.2169463     0.5003456     0.0956044
H           2.2179093     0.9202655     0.0589476
C           0.1345123     1.2416003     0.5733856
H           0.2868238     2.2603421     0.9189127
C          -1.1416465     0.6755710     0.6011243
H          -1.9824738     1.2549483     0.9726779
C           1.0053532    -0.8058926    -0.3463029
C          -1.3442377    -0.6293229     0.1429861
H          -2.3412198    -1.0610824     0.1522134
C          -0.2701653    -1.3758930    -0.3418020
H          -0.4142393    -2.3773758    -0.7342163
S           2.4171989    -1.7523507    -1.0080003
N           3.6431268    -0.8479785    -1.2988686
C           2.9783649    -2.6898283     0.4265126
H           3.4760768    -0.3041141    -2.1489814
H           3.3118093    -2.0001570     1.2026661
H           3.8076979    -3.3117320     0.0835562
H           2.1490626    -3.3085040     0.7739723
O           1.8280166    -2.6796116    -2.0067899
19
198_C7H9NOS_0-6-11-18 (-135,) energy =    -800.2248202
C           1.1872351     0.5731531    -0.0071448
H           2.1668504     1.0294221    -0.1151243
C           0.0895483     1.3058356     0.4502126
H           0.2054162     2.3586605     0.6920727
C          -1.1524812     0.6860547     0.5950135
H          -2.0046526     1.2571048     0.9532286
C           1.0257964    -0.7769544    -0.3132005
C          -1.3072742    -0.6653274     0.2711967
H          -2.2788917    -1.1413731     0.3700388
C          -0.2198860    -1.4008678    -0.1983145
H          -0.3399774    -2.4378131    -0.4968657
S           2.4451674    -1.6974086    -0.9968325
N           3.7117691    -0.8122502    -1.1290682
C           2.8954711    -2.7982771     0.3584406
H           3.6292566    -0.2149328    -1.9551299
H           3.2005311    -2.2023097     1.2194210
H           3.7279450    -3.4056712    -0.0020827
H           2.0335787    -3.4246687     0.5948873
O           1.8875106    -2.4838346    -2.1256611
19
198_C7H9NOS_0-6-11-18 (-120,) energy =    -800.2227688
C           1.1567951     0.6231062    -0.1180624
H           2.1091556     1.1136604    -0.2962190
C           0.0411494     1.3449368     0.3115709
H           0.1138624     2.4202723     0.4481576
C          -1.1614038     0.6852877     0.5678172
H          -2.0271698     1.2473345     0.9069564
C           1.0565478    -0.7565062    -0.2857057
C          -1.2577972    -0.6970453     0.3821918
H          -2.1983042    -1.2078854     0.5689653
C          -0.1528112    -1.4217395    -0.0620523
H          -0.2396740    -2.4874926    -0.2521182
S           2.4885157    -1.6490631    -0.9829473
N           3.7863714    -0.8009461    -0.9521374
C           2.8270847    -2.8994602     0.2711952
H           3.7930959    -0.1530661    -1.7430257
H           3.1108653    -2.4044185     1.2006982
H           3.6553593    -3.4981208    -0.1124599
H           1.9368450    -3.5158242     0.4057510
O           1.9821313    -2.2839761    -2.2253509
19
198_C7H9NOS_0-6-11-18 (-105,) energy =    -800.2203642
C           1.1170273     0.6552746    -0.2356091
H           2.0345775     1.1711248    -0.5026678
C          -0.0107195     1.3702764     0.1692380
H           0.0187301     2.4560220     0.1914797
C          -1.1693069     0.6916544     0.5503493
H          -2.0445536     1.2488693     0.8724068
C           1.0790850    -0.7384870    -0.2564974
C          -1.2061159    -0.7043349     0.5140379
H          -2.1101347    -1.2342155     0.8010323
C          -0.0876866    -1.4241950     0.0936570
H          -0.1382616    -2.5067705     0.0295416
S           2.5265746    -1.6097804    -0.9529011
N           3.8449795    -0.8193760    -0.7524907
C           2.7531658    -2.9971914     0.1762726
H           3.9365025    -0.1054463    -1.4780033
H           2.9631633    -2.6159958     1.1763150
H           3.6104297    -3.5523375    -0.2085778
H           1.8595577    -3.6223467     0.1666485
O           2.0908261    -2.0874756    -2.2888733
19
198_C7H9NOS_0-6-11-18 (-90,) energy =    -800.2183340
C           1.0504063     0.6636210    -0.4002439
H           1.9138059     1.1882592    -0.7993624
C          -0.0748140     1.3763143     0.0100729
H          -0.0925521     2.4580009    -0.0887517
C          -1.1712030     0.7024669     0.5528804
H          -2.0449182     1.2595107     0.8790192
C           1.0759971    -0.7266320    -0.2708211
C          -1.1433315    -0.6871592     0.6754705
H          -1.9953594    -1.2160517     1.0934412
C          -0.0250321    -1.4085170     0.2524468
H          -0.0276600    -2.4904981     0.3319042
S           2.5399384    -1.5879474    -0.9463828
N           3.8687067    -0.8909542    -0.5587888
C           2.6370219    -3.1014829     0.0281812
H           4.0166895    -0.0597496    -1.1346330
H           2.6968508    -2.8557926     1.0890729
H           3.5557006    -3.5902334    -0.3001998
H           1.7742570    -3.7305237    -0.1936957
O           2.1947745    -1.9026914    -2.3551855
19
198_C7H9NOS_0-6-11-18 (-75,) energy =    -800.2176139
C           0.9793023     0.6495165    -0.5678077
H           1.7690529     1.1593483    -1.1130671
C          -0.1437857     1.3578333    -0.1480357
H          -0.2233472     2.4187538    -0.3677170
C          -1.1623467     0.7071039     0.5536070
H          -2.0363449     1.2615563     0.8832281
C           1.0833403    -0.7173758    -0.2897087
C          -1.0542475    -0.6551809     0.8292019
H          -1.8436404    -1.1668434     1.3727407
C           0.0672713    -1.3741575     0.4066434
H           0.1304221    -2.4346845     0.6238726
S           2.5911564    -1.5506808    -0.8974233
N           3.8859688    -0.9559719    -0.2879577
C           2.5519741    -3.1748161    -0.1193400
H           4.0785438    -0.0334608    -0.6839919
H           2.5316770    -3.0765023     0.9663717
H           3.4800881    -3.6537513    -0.4356194
H           1.6927608    -3.7312613    -0.4962436
O           2.3901365    -1.6982876    -2.3605261
19
198_C7H9NOS_0-6-11-18 (-60,) energy =    -800.2185675
C           0.8982411     0.6172083    -0.7255680
H           1.6102611     1.0771905    -1.4050332
C          -0.2231925     1.3255855    -0.3003737
H          -0.3700078     2.3494963    -0.6325146
C          -1.1579806     0.7202136     0.5438199
H          -2.0327545     1.2738051     0.8729058
C           1.0836872    -0.7053252    -0.3072695
C          -0.9662601    -0.5961428     0.9619234
H          -1.6899277    -1.0727754     1.6173286
C           0.1597906    -1.3113979     0.5461331
H           0.2978738    -2.3308683     0.8891603
S           2.6436840    -1.4965179    -0.8282876
N           3.8671493    -1.0227674    -0.0033676
C           2.4901638    -3.2072614    -0.2874542
H           4.0973127    -0.0533011    -0.2329614
H           2.4460283    -3.2669754     0.7999376
H           3.3974280    -3.6931490    -0.6508665
H           1.6108214    -3.6484326    -0.7593491
O           2.6062389    -1.4623684    -2.3121189
19
198_C7H9NOS_0-6-11-18 (-45,) energy =    -800.2206026
C           0.8194333     0.5715923    -0.8434383
H           1.4681581     0.9747320    -1.6149772
C          -0.3136871     1.2694190    -0.4271529
H          -0.5352475     2.2411200    -0.8596149
C          -1.1645425     0.7181767     0.5334505
H          -2.0499355     1.2608088     0.8525815
C           1.0960074    -0.6842677    -0.2949120
C          -0.8759810    -0.5310819     1.0853318
H          -1.5343780    -0.9614833     1.8347645
C           0.2645605    -1.2301205     0.6863044
H           0.4915250    -2.1884802     1.1416268
S           2.6885845    -1.4423501    -0.7605858
N           3.8359756    -1.1062256     0.2255127
C           2.4535078    -3.2023949    -0.4576931
H           4.0883471    -0.1179644     0.1514927
H           2.3684111    -3.4055926     0.6094395
H           3.3513031    -3.6778867    -0.8571785
H           1.5722028    -3.5343042    -1.0090102
O           2.7854732    -1.2336415    -2.2280562
19
198_C7H9NOS_0-6-11-18 (-30,) energy =    -800.2228270
C           0.7627984     0.4732325    -0.9505455
H           1.3710905     0.8032519    -1.7863151
C          -0.3785182     1.1770395    -0.5629713
H          -0.6549722     2.0856968    -1.0905117
C          -1.1643326     0.7126097     0.4930628
H          -2.0553700     1.2593058     0.7890102
C           1.1066231    -0.6999964    -0.2757925
C          -0.8029650    -0.4521598     1.1750187
H          -1.4088639    -0.8101228     2.0027381
C           0.3455542    -1.1522443     0.8061610
H           0.6422509    -2.0351310     1.3638305
S           2.7025472    -1.4766319    -0.6984520
N           3.7717657    -1.3061883     0.4105085
C           2.3612979    -3.2433306    -0.6109677
H           4.0611932    -0.3272669     0.4742271
H           2.1239567    -3.5430114     0.4094354
H           3.2801751    -3.7325733    -0.9398164
H           1.5430546    -3.4652287    -1.2979390
O           2.9289226    -1.1227124    -2.1235232
19
198_C7H9NOS_0-6-11-18 (-15,) energy =    -800.2248540
C           0.7082764     0.3891250    -1.0065342
H           1.2764883     0.6612010    -1.8897191
C          -0.4543119     1.0734342    -0.6452695
H          -0.7983328     1.9072977    -1.2508494
C          -1.1719125     0.6871256     0.4877762
H          -2.0780382     1.2193213     0.7639719
C           1.1371247    -0.6843082    -0.2252915
C          -0.7226471    -0.3770215     1.2753681
H          -1.2744287    -0.6687412     2.1646253
C           0.4453396    -1.0561818     0.9314205
H           0.8220916    -1.8539524     1.5648873
S           2.7317332    -1.4724288    -0.6269889
N           3.7197361    -1.4596108     0.5672196
C           2.3140991    -3.2213346    -0.7399199
H           4.0274327    -0.5031018     0.7587594
H           1.9205829    -3.5826715     0.2101672
H           3.2452565    -3.7368412    -0.9831437
H           1.5867199    -3.3403088    -1.5446253
O           3.0693355    -0.9867524    -1.9896417
19
198_C7H9NOS_0-6-11-18 (0,) energy =    -800.2262036
C           0.6696261     0.3159185    -1.0552160
H           1.2103616     0.5339192    -1.9699753
C          -0.5194111     0.9734981    -0.7323820
H          -0.9206229     1.7244089    -1.4073706
C          -1.1886708     0.6695368     0.4545798
H          -2.1143180     1.1824151     0.7012259
C           1.1727208    -0.6453576    -0.1782899
C          -0.6671418    -0.2847409     1.3330188
H          -1.1826372    -0.5099668     2.2624940
C           0.5252855    -0.9389240     1.0250043
H           0.9623795    -1.6535531     1.7165421
S           2.7631105    -1.4527563    -0.5560644
N           3.6627732    -1.5949457     0.6985916
C           2.2859270    -3.1637741    -0.8612614
H           4.0003905    -0.6751094     0.9925799
H           1.8093806    -3.5826969     0.0253722
H           3.2082501    -3.7022236    -1.0881396
H           1.6111172    -3.1754261    -1.7188483
O           3.2117636    -0.8488377    -1.8366758
19
198_C7H9NOS_0-6-11-18 (15,) energy =    -800.2266822
C           0.6217532     0.2265361    -1.0848335
H           1.1291881     0.3848099    -2.0305877
C          -0.5867034     0.8599945    -0.7900579
H          -1.0425631     1.5196742    -1.5231881
C          -1.2043088     0.6522307     0.4455968
H          -2.1444120     1.1484757     0.6707463
C           1.1969234    -0.6132615    -0.1295841
C          -0.6143390    -0.1840787     1.3968631
H          -1.0916067    -0.3355452     2.3610573
C           0.5950062    -0.8198525     1.1134332
H           1.0820116    -1.4560314     1.8468811
S           2.7800278    -1.4409317    -0.4940742
N           3.5945957    -1.7377296     0.7915808
C           2.2624940    -3.0949070    -0.9915060
H           3.9690806    -0.8660123     1.1741656
H           1.7249749    -3.5739369    -0.1726000
H           3.1761108    -3.6458389    -1.2237380
H           1.6331071    -2.9983193    -1.8778511
O           3.3288480    -0.7281996    -1.6756698
19
198_C7H9NOS_0-6-11-18 (30,) energy =    -800.2261709
C           0.5631855     0.1185573    -1.1035647
H           1.0304844     0.2067269    -2.0791578
C          -0.6575479     0.7366478    -0.8321698
H          -1.1655004     1.2984393    -1.6112127
C          -1.2218431     0.6419832     0.4430361
H          -2.1712796     1.1281248     0.6502574
C           1.2055487    -0.5929286    -0.0870314
C          -0.5693440    -0.0701617     1.4514978
H          -1.0089472    -0.1371636     2.4427768
C           0.6495692    -0.6981942     1.1879390
H           1.1759564    -1.2597227     1.9542906
S           2.7846743    -1.4368107    -0.4326726
N           3.5055632    -1.8855082     0.8650686
C           2.2483183    -3.0131114    -1.1254938
H           3.9274797    -1.0741565     1.3233934
H           1.6705617    -3.5603900    -0.3798948
H           3.1572247    -3.5599893    -1.3841900
H           1.6532461    -2.8077134    -2.0170135
O           3.4350372    -0.6249212    -1.4921006
19
198_C7H9NOS_0-6-11-18 (45,) energy =    -800.2246769
C           0.5071561    -0.0102345    -1.1105096
H           0.9301488    -0.0098469    -2.1106890
C          -0.7179268     0.6048365    -0.8556978
H          -1.2713284     1.0634872    -1.6704489
C          -1.2279267     0.6392118     0.4457265
H          -2.1813589     1.1228384     0.6398567
C           1.2115738    -0.5892343    -0.0510082
C          -0.5179548     0.0533175     1.4949023
H          -0.9169218     0.0786481     2.5051224
C           0.7031399    -0.5776441     1.2466039
H           1.2609379    -1.0654020     2.0405611
S           2.7907817    -1.4458346    -0.3674369
N           3.4057910    -2.0437013     0.9247060
C           2.2622283    -2.9270041    -1.2507085
H           3.8633142    -1.3032067     1.4616817
H           1.6262736    -3.5264976    -0.5983523
H           3.1732621    -3.4721063    -1.5052923
H           1.7293608    -2.6210814    -2.1525261
O           3.5447603    -0.5497311    -1.2798161
19
198_C7H9NOS_0-6-11-18 (60,) energy =    -800.2224125
C           0.4376107    -0.1542239    -1.1062350
H           0.7991358    -0.2599514    -2.1249350
C          -0.7813645     0.4765686    -0.8596659
H          -1.3825943     0.8324225    -1.6917049
C          -1.2253017     0.6557404     0.4535415
H          -2.1745106     1.1498554     0.6413550
C           1.2064591    -0.6031743    -0.0283371
C          -0.4555394     0.1949554     1.5225168
H          -0.8044652     0.3257957     2.5430274
C           0.7575648    -0.4533503     1.2823699
H           1.3479503    -0.8599366     2.0979141
S           2.7902172    -1.4684784    -0.3077782
N           3.2897900    -2.2100287     0.9592863
C           2.3079715    -2.8405965    -1.3746702
H           3.7576797    -1.5486084     1.5830462
H           1.6035329    -3.4785406    -0.8396669
H           3.2273623    -3.3861333    -1.5951666
H           1.8675844    -2.4428246    -2.2899491
O           3.6409984    -0.5041563    -1.0492470
19
198_C7H9NOS_0-6-11-18 (75,) energy =    -800.2199075
C           0.3398630    -0.3095289    -1.0850531
H           0.6289734    -0.5379111    -2.1060965
C          -0.8663779     0.3481933    -0.8406828
H          -1.5179389     0.6018250    -1.6722589
C          -1.2327759     0.6815245     0.4649166
H          -2.1720146     1.1949645     0.6504017
C           1.1754895    -0.6325031    -0.0125189
C          -0.3968593     0.3467053     1.5317979
H          -0.6840194     0.5944901     2.5498111
C           0.8016256    -0.3269657     1.2960696
H           1.4346319    -0.6340545     2.1230801
S           2.7657351    -1.5024376    -0.2537104
N           3.1451361    -2.3869286     0.9614516
C           2.3709090    -2.7479256    -1.4968659
H           3.5608029    -1.8112766     1.6966599
H           1.5790152    -3.3970880    -1.1216074
H           3.2923567    -3.3146253    -1.6412535
H           2.0790834    -2.2546672    -2.4245684
O           3.6953776    -0.4860867    -0.8071487
19
198_C7H9NOS_0-6-11-18 (90,) energy =    -800.2181271
C           0.2467579    -0.4697425    -1.0432164
H           0.4613369    -0.8285642    -2.0441669
C          -0.9464199     0.2154475    -0.8023820
H          -1.6504112     0.3668135    -1.6159273
C          -1.2317140     0.7049216     0.4722957
H          -2.1599143     1.2388104     0.6551128
C           1.1506151    -0.6668939     0.0028997
C          -0.3245559     0.5020085     1.5150628
H          -0.5447517     0.8751585     2.5112645
C           0.8609495    -0.1929776     1.2846509
H           1.5521512    -0.3760528     2.1023975
S           2.7439168    -1.5382403    -0.2114116
N           3.0121341    -2.5650840     0.9178965
C           2.4542145    -2.6299429    -1.6165654
H           3.3077910    -2.0879593     1.7719745
H           1.5953555    -3.2721304    -1.4184981
H           3.3631579    -3.2280296    -1.6989249
H           2.3136691    -2.0302975    -2.5165951
O           3.7260054    -0.4859751    -0.5738039
19
198_C7H9NOS_0-6-11-18 (105,) energy =    -800.2176184
C           0.1654664    -0.6339467    -0.9770022
H           0.3220389    -1.1198955    -1.9337003
C          -1.0161677     0.0791568    -0.7568917
H          -1.7616330     0.1345293    -1.5453062
C          -1.2361771     0.7179990     0.4624901
H          -2.1556205     1.2721676     0.6281763
C           1.1227418    -0.7083896     0.0361965
C          -0.2712056     0.6444044     1.4708559
H          -0.4359763     1.1422831     2.4222320
C           0.9066943    -0.0682051     1.2610100
H           1.6550643    -0.1222794     2.0471118
S           2.7089151    -1.5974316    -0.1377612
N           2.8626492    -2.7491842     0.8876876
C           2.5414984    -2.5191500    -1.6761713
H           3.0247814    -2.3753712     1.8252021
H           1.6871360    -3.1945618    -1.6239108
H           3.4675303    -3.0908390    -1.7565264
H           2.4583069    -1.8169484    -2.5067829
O           3.7313186    -0.5346684    -0.3055544
19
198_C7H9NOS_0-6-11-18 (120,) energy =    -800.2183945
C           0.1043338    -0.7802253    -0.8736438
H           0.2180785    -1.3815489    -1.7688379
C          -1.0710434    -0.0478637    -0.6859859
H          -1.8506543    -0.0853945    -1.4417568
C          -1.2421712     0.7280091     0.4597560
H          -2.1578188     1.2949913     0.6016530
C           1.1061191    -0.7324427     0.0973551
C          -0.2296787     0.7813351     1.4215864
H          -0.3529587     1.3948056     2.3096591
C           0.9478632     0.0599922     1.2397113
H           1.7485011     0.1284169     1.9707605
S           2.6817697    -1.6454019    -0.0310013
N           2.7308961    -2.9044636     0.8720611
C           2.6472735    -2.3877677    -1.6713424
H           2.7788044    -2.6343738     1.8571322
H           1.8311953    -3.1058394    -1.7527204
H           3.6058608    -2.9019797    -1.7601166
H           2.5729618    -1.5949813    -2.4171562
O           3.7272225    -0.5918145    -0.0040493
19
198_C7H9NOS_0-6-11-18 (135,) energy =    -800.2200846
C           0.0376263    -0.9086011    -0.7839563
H           0.1005752    -1.6111618    -1.6080782
C          -1.1253690    -0.1546464    -0.6119507
H          -1.9471923    -0.2687088    -1.3133783
C          -1.2319965     0.7406371     0.4529019
H          -2.1395047     1.3232461     0.5837826
C           1.0938190    -0.7563288     0.1169171
C          -0.1671169     0.8945184     1.3439608
H          -0.2406464     1.6019465     2.1652183
C           1.0030815     0.1571192     1.1716931
H           1.8529723     0.3060260     1.8304873
S           2.6459032    -1.7093438    -0.0028323
N           2.5969431    -3.0644487     0.7483214
C           2.7115042    -2.2527139    -1.7188114
H           2.5655813    -2.9082046     1.7584249
H           1.9277057    -2.9810225    -1.9255895
H           3.6919124    -2.7209988    -1.8243521
H           2.6386373    -1.3768805    -2.3654249
O           3.7153987    -0.7005125     0.2071064
19
198_C7H9NOS_0-6-11-18 (150,) energy =    -800.2221641
C          -0.0193332    -1.0353638    -0.6694689
H           0.0009075    -1.8378286    -1.3999778
C          -1.1710633    -0.2610374    -0.5238634
H          -2.0311519    -0.4520065    -1.1596010
C          -1.2191395     0.7525377     0.4357642
H          -2.1192071     1.3505964     0.5478204
C           1.0852391    -0.7805575     0.1473990
C          -0.1090633     1.0021939     1.2451078
H          -0.1406841     1.7977730     1.9843365
C           1.0532061     0.2449744     1.0949493
H           1.9398578     0.4553345     1.6838992
S           2.6147950    -1.7708631     0.0319608
N           2.4675561    -3.1994679     0.6148776
C           2.7827515    -2.1110661    -1.7293127
H           2.3642249    -3.1569347     1.6314710
H           1.9901527    -2.7737886    -2.0751522
H           3.7519102    -2.6029560    -1.8325573
H           2.7794000    -1.1598543    -2.2638310
O           3.6981778    -0.8320816     0.4215131
19
198_C7H9NOS_0-6-11-18 (165,) energy =    -800.2243641
C          -0.0619666    -1.1769114    -0.5233417
H          -0.0749157    -2.0725167    -1.1374756
C          -1.2047021    -0.3850614    -0.4143393
H          -2.0996137    -0.6506225    -0.9701813
C          -1.2000374     0.7421486     0.4121168
H          -2.0937962     1.3540813     0.4974265
C           1.0844942    -0.8242441     0.1942496
C          -0.0500617     1.0843201     1.1255666
H          -0.0457557     1.9631089     1.7644217
C           1.1042877     0.3071528     1.0104004
H           2.0198268     0.5697250     1.5296469
S           2.5952414    -1.8401295     0.0774747
N           2.3595607    -3.3197868     0.4743530
C           2.8698997    -1.9752435    -1.6984023
H           2.1655056    -3.3892804     1.4761950
H           2.0401598    -2.4933044    -2.1786010
H           3.7899745    -2.5520081    -1.8115049
H           2.9973475    -0.9672357    -2.0962924
O           3.6735998    -0.9893748     0.6434809
19
198_C7H9NOS_0-6-11-18 (180,) energy =    -800.2260382
C          -0.1103926    -1.2800844    -0.3924472
H          -0.1511947    -2.2407039    -0.8980622
C          -1.2441015    -0.4730238    -0.3022996
H          -2.1732591    -0.7927964    -0.7657552
C          -1.1863973     0.7395299     0.3910540
H          -2.0730537     1.3634845     0.4631979
C           1.0775906    -0.8555401     0.2088041
C           0.0042740     1.1496089     0.9938583
H           0.0453775     2.0905433     1.5355259
C           1.1484120     0.3543005     0.8994341
H           2.0888498     0.6526898     1.3502613
S           2.5647716    -1.9030095     0.0889931
N           2.2480749    -3.4058458     0.3003207
C           2.9508589    -1.8536933    -1.6710173
H           1.9931815    -3.5758477     1.2763188
H           2.1202732    -2.2588218    -2.2492806
H           3.8428055    -2.4693845    -1.8032153
H           3.1551196    -0.8160625    -1.9402428
O           3.6223140    -1.1632365     0.8241746
