18
410_C7H8N2O_14-0-1-9 (-165,) energy =    -456.3109193
C           1.2883528    -1.0101909     0.2562486
N           2.5789536    -1.0577580    -0.2535751
H           2.8594760    -1.9515052    -0.6360100
C           5.9257418     1.3473926     0.6592096
H           6.7965471     1.9570189     0.8823523
C           4.6488357     1.7766511     1.0231047
H           4.5213337     2.7276117     1.5339234
C           3.5175669     1.0096857     0.7439205
H           2.5307881     1.3428704     1.0324567
C           3.6664733    -0.2229555     0.0903110
C           4.9497121    -0.6557883    -0.2792686
H           5.0704936    -1.6092811    -0.7910190
C           6.0682052     0.1235747     0.0034754
H           7.0526876    -0.2313936    -0.2896564
N           0.5505437    -2.1588707    -0.0314812
H          -0.4352243    -2.0262388     0.1564010
H           0.7282725    -2.6326546    -0.9092720
O           0.8320740    -0.0969527     0.9262469
18
410_C7H8N2O_14-0-1-9 (-150,) energy =    -456.3091971
C           1.2383514    -1.0060372     0.0900160
N           2.5219004    -1.0046696    -0.4468823
H           2.7795604    -1.8352041    -0.9641350
C           5.8833603     1.2323673     0.7803247
H           6.7572420     1.7992786     1.0879997
C           4.6008912     1.6687422     1.1166589
H           4.4723616     2.5839803     1.6887898
C           3.4669953     0.9584399     0.7231538
H           2.4731394     1.3062725     0.9701753
C           3.6180099    -0.2278582    -0.0109260
C           4.9059172    -0.6675904    -0.3540090
H           5.0282105    -1.5846892    -0.9279815
C           6.0272652     0.0597697     0.0372594
H           7.0160519    -0.2973814    -0.2382746
N           0.6005425    -2.2363957    -0.0446495
H          -0.2969350    -2.2565315     0.4220066
H           1.1501856    -3.0759281     0.0864570
O           0.6961591    -0.0350639     0.5938669
18
410_C7H8N2O_14-0-1-9 (-135,) energy =    -456.3063602
C           1.2277154    -0.9769670     0.0347384
N           2.4817768    -0.9178229    -0.5850943
H           2.7449727    -1.7663265    -1.0719678
C           5.8661710     1.1738102     0.8312551
H           6.7436617     1.7055138     1.1876068
C           4.5847985     1.6381027     1.1340993
H           4.4611177     2.5397305     1.7284552
C           3.4480251     0.9731192     0.6760580
H           2.4548692     1.3441003     0.8937212
C           3.5927621    -0.1958396    -0.0859453
C           4.8786130    -0.6628590    -0.3961747
H           4.9958788    -1.5654315    -0.9936973
C           6.0046547     0.0206393     0.0576299
H           6.9927583    -0.3565110    -0.1926412
N           0.7037102    -2.2615061     0.0764920
H          -0.1709582    -2.3189400     0.5812893
H           1.3328807    -3.0377510     0.2315495
O           0.6359412    -0.0058653     0.4756392
18
410_C7H8N2O_14-0-1-9 (-120,) energy =    -456.3025546
C           1.2113691    -0.9405728    -0.0277687
N           2.4440929    -0.8407283    -0.7095030
H           2.7062171    -1.7068115    -1.1682324
C           5.8377610     1.1124496     0.8813187
H           6.7152077     1.6112911     1.2823852
C           4.5580970     1.5981412     1.1583439
H           4.4360985     2.4833526     1.7772026
C           3.4231062     0.9747865     0.6421746
H           2.4315311     1.3644822     0.8374951
C           3.5650225    -0.1727938    -0.1519577
C           4.8485484    -0.6607806    -0.4361640
H           4.9642730    -1.5457133    -1.0597193
C           5.9747086    -0.0181972     0.0751550
H           6.9616722    -0.4104744    -0.1558081
N           0.8222827    -2.2462631     0.2095019
H          -0.0274231    -2.3348887     0.7508454
H           1.5270780    -2.9481898     0.3874269
O           0.5509327     0.0235670     0.3150104
18
410_C7H8N2O_14-0-1-9 (-105,) energy =    -456.2983499
C           1.2007723    -0.9130960    -0.1024998
N           2.4205449    -0.7812295    -0.8287335
H           2.6819146    -1.6546162    -1.2766738
C           5.8066537     1.0490653     0.9232987
H           6.6801792     1.5192077     1.3653912
C           4.5267689     1.5430103     1.1858531
H           4.4005696     2.4060945     1.8344060
C           3.3986253     0.9547299     0.6172136
H           2.4079066     1.3545409     0.8011539
C           3.5442887    -0.1637737    -0.2172163
C           4.8278914    -0.6597421    -0.4859275
H           4.9481700    -1.5212515    -1.1405863
C           5.9486763    -0.0521468     0.0783739
H           6.9360650    -0.4494933    -0.1419808
N           0.9604268    -2.1960893     0.3399715
H           0.1387736    -2.3077246     0.9190501
H           1.7355206    -2.8119280     0.5405257
O           0.4507625     0.0189655     0.1136518
18
410_C7H8N2O_14-0-1-9 (-90,) energy =    -456.2999876
C           1.1794465    -1.0334713    -0.9111370
N           2.5445379    -1.4871597    -0.8188505
H           2.8143788    -1.7505249    -1.7638433
C           5.5948600     0.9658551     0.8067271
H           6.3860115     1.5820732     1.2234883
C           4.2936066     1.0509542     1.3031437
H           4.0642718     1.7399477     2.1120256
C           3.2710613     0.2629742     0.7753168
H           2.2643387     0.3421731     1.1726235
C           3.5413143    -0.6257344    -0.2754368
C           4.8495502    -0.7107424    -0.7747634
H           5.0693495    -1.3997582    -1.5876307
C           5.8637560     0.0774821    -0.2361147
H           6.8695768    -0.0028079    -0.6400839
N           0.4595960    -1.3309408     0.2083618
H          -0.5292124    -1.1276605     0.2060485
H           0.8303059    -1.9711500     0.8937217
O           0.7132335    -0.5195405    -1.9102459
18
410_C7H8N2O_14-0-1-9 (-75,) energy =    -456.3030407
C           1.1478786    -1.0764439    -0.9462992
N           2.5344417    -1.4105970    -0.9239821
H           2.7949001    -1.6130650    -1.8852828
C           5.5925836     0.9274146     0.8483975
H           6.3884729     1.5143005     1.2972260
C           4.2804906     1.0423544     1.3072711
H           4.0467226     1.7274939     2.1181625
C           3.2499043     0.2935845     0.7376591
H           2.2346346     0.4033402     1.1025953
C           3.5263492    -0.5898068    -0.3157453
C           4.8473630    -0.7067747    -0.7762031
H           5.0714115    -1.3947966    -1.5885970
C           5.8666005     0.0463745    -0.1997273
H           6.8811690    -0.0578837    -0.5752854
N           0.5247344    -1.2620841     0.2591351
H          -0.4815709    -1.1785129     0.2648051
H           0.9573399    -1.8475290     0.9583938
O           0.5695777    -0.7501628    -1.9675357
18
410_C7H8N2O_14-0-1-9 (-60,) energy =    -456.3059564
C           1.1180362    -1.1220513    -0.9439692
N           2.5158735    -1.3187030    -1.0067863
H           2.7545814    -1.4759044    -1.9808540
C           5.5935267     0.8889362     0.8871839
H           6.3958524     1.4443238     1.3637515
C           4.2747546     1.0435148     1.3129766
H           4.0418469     1.7293625     2.1235020
C           3.2336501     0.3377096     0.7076467
H           2.2129867     0.4848043     1.0414488
C           3.5090638    -0.5467282    -0.3453098
C           4.8380819    -0.7043587    -0.7715542
H           5.0595267    -1.3952998    -1.5819786
C           5.8661436     0.0102025    -0.1636167
H           6.8862597    -0.1247371    -0.5133980
N           0.5846862    -1.2181533     0.3206568
H          -0.4235288    -1.2773681     0.3524779
H           1.0934094    -1.7337550     1.0254562
O           0.4443784    -0.9692715    -1.9490530
18
410_C7H8N2O_14-0-1-9 (-45,) energy =    -456.3082927
C           1.1231435    -1.1748693    -0.9709167
N           2.5180291    -1.2142523    -1.1112479
H           2.7400817    -1.3380095    -2.0927529
C           5.5969590     0.8534772     0.9249214
H           6.4008789     1.3746979     1.4361799
C           4.2701628     1.0520807     1.3046373
H           4.0329672     1.7400654     2.1120594
C           3.2265460     0.3922647     0.6529684
H           2.1999156     0.5803405     0.9445620
C           3.5090157    -0.4961799    -0.3952848
C           4.8466087    -0.6975401    -0.7750284
H           5.0711604    -1.3918285    -1.5814542
C           5.8765608    -0.0237558    -0.1255604
H           6.9033694    -0.1918669    -0.4394402
N           0.6580711    -1.2127868     0.3277330
H          -0.3301875    -1.4133200     0.3985055
H           1.2460899    -1.6262010     1.0393405
O           0.3870534    -1.1784634    -1.9450605
18
410_C7H8N2O_14-0-1-9 (-30,) energy =    -456.3098659
C           1.1112089    -1.2228800    -0.9684225
N           2.4849845    -1.1067387    -1.1819691
H           2.6943081    -1.2351519    -2.1643221
C           5.5874542     0.8107010     0.9546691
H           6.3970875     1.2958725     1.4917778
C           4.2598314     1.0577450     1.3022716
H           4.0283816     1.7487932     2.1086883
C           3.2096174     0.4460226     0.6155259
H           2.1831000     0.6771531     0.8750656
C           3.4854687    -0.4479422    -0.4307219
C           4.8239371    -0.6960280    -0.7789012
H           5.0422115    -1.3925770    -1.5849177
C           5.8613230    -0.0660396    -0.0978079
H           6.8890450    -0.2698202    -0.3864724
N           0.6992678    -1.2066620     0.3513447
H          -0.2514027    -1.5307445     0.4686897
H           1.3525300    -1.5085975     1.0628771
O           0.3395729    -1.3716527    -1.9042097
18
410_C7H8N2O_14-0-1-9 (-15,) energy =    -456.3107025
C           1.1108387    -1.2656583    -0.9685608
N           2.4495702    -0.9977279    -1.2359354
H           2.6666298    -1.1765891    -2.2076173
C           5.5804210     0.7712700     0.9792244
H           6.3962385     1.2214719     1.5370273
C           4.2558118     1.0592834     1.3072384
H           4.0336160     1.7481011     2.1180982
C           3.1989426     0.4938898     0.5920620
H           2.1759180     0.7621220     0.8297400
C           3.4633123    -0.3982005    -0.4596664
C           4.7986667    -0.6848911    -0.7895828
H           5.0084780    -1.3767873    -1.6018123
C           5.8438649    -0.0984973    -0.0816308
H           6.8693778    -0.3318533    -0.3552570
N           0.7221684    -1.1950561     0.3583428
H          -0.1815915    -1.6216613     0.5146462
H           1.4151832    -1.3857377     1.0713460
O           0.3389420    -1.5537072    -1.8717560
18
410_C7H8N2O_14-0-1-9 (0,) energy =    -456.3109357
C           1.1246705    -1.3120774    -0.9657309
N           2.4095334    -0.8840425    -1.2860551
H           2.6417268    -1.1197830    -2.2417579
C           5.5711045     0.7304144     1.0002880
H           6.3927653     1.1435307     1.5778766
C           4.2522427     1.0640644     1.3090377
H           4.0414141     1.7519436     2.1236637
C           3.1897094     0.5472738     0.5664028
H           2.1723731     0.8544116     0.7824901
C           3.4402030    -0.3444089    -0.4895387
C           4.7694191    -0.6742870    -0.8014234
H           4.9689510    -1.3630219    -1.6189136
C           5.8222837    -0.1341801    -0.0676054
H           6.8436375    -0.4006528    -0.3260319
N           0.7499639    -1.2068049     0.3626796
H          -0.0943350    -1.7276378     0.5604775
H           1.4695402    -1.2738350     1.0716811
O           0.3746942    -1.7311388    -1.8356470
18
410_C7H8N2O_14-0-1-9 (15,) energy =    -456.3107025
C           1.3145044    -1.6145416     0.5080869
N           2.7026343    -1.6075596     0.6004151
H           3.0444405    -2.4849812     0.9699712
C           5.6552431     1.3704799     0.0985193
H           6.4262188     2.1244967    -0.0296966
C           4.3475834     1.7419919     0.4101915
H           4.0962326     2.7915769     0.5387555
C           3.3500724     0.7817245     0.5861962
H           2.3489045     1.0831581     0.8722369
C           3.6529715    -0.5799796     0.4253765
C           4.9716206    -0.9517297     0.1136483
H           5.2106571    -2.0048267    -0.0140473
C           5.9617475     0.0145996    -0.0391585
H           6.9758352    -0.2949999    -0.2774380
N           0.7337094    -0.5235082    -0.1156487
H          -0.2332770    -0.6931254    -0.3593124
H           1.2720626    -0.0297412    -0.8166285
O           0.6635030    -2.5484254     0.9537509
18
410_C7H8N2O_14-0-1-9 (30,) energy =    -456.3098659
C           1.3207073    -1.5891067     0.5418922
N           2.7137403    -1.6269647     0.4757085
H           3.0565909    -2.4834892     0.8930107
C           5.6714261     1.3743893     0.1424513
H           6.4444387     2.1321531     0.0551131
C           4.3520904     1.7372736     0.4109897
H           4.0927107     2.7841655     0.5457599
C           3.3502172     0.7727867     0.5325718
H           2.3370798     1.0696899     0.7773571
C           3.6632164    -0.5850723     0.3647788
C           4.9931075    -0.9485233     0.0935351
H           5.2388127    -1.9989688    -0.0431375
C           5.9858412     0.0216206    -0.0076853
H           7.0085318    -0.2824734    -0.2143199
N           0.7108365    -0.5371145    -0.1162094
H          -0.2817797    -0.6795926    -0.2465211
H           1.1952782    -0.1122381    -0.8965865
O           0.6942517    -2.4667548     1.1168211
18
410_C7H8N2O_14-0-1-9 (45,) energy =    -456.3082926
C           1.3816626    -1.6014078     0.5935052
N           2.7616231    -1.6579547     0.3494865
H           3.1288590    -2.5051576     0.7682528
C           5.7006648     1.3803490     0.1703566
H           6.4689989     2.1461946     0.1204888
C           4.3680181     1.7274447     0.3884548
H           4.0924095     2.7707139     0.5194027
C           3.3708191     0.7529101     0.4595725
H           2.3447143     1.0402226     0.6568792
C           3.7043503    -0.6001781     0.2986836
C           5.0472036    -0.9482948     0.0761578
H           5.3093864    -1.9952583    -0.0576701
C           6.0333351     0.0320046     0.0202209
H           7.0661366    -0.2612348    -0.1484581
N           0.7014705    -0.6100811    -0.0838380
H          -0.3023447    -0.7291396    -0.0754632
H           1.0980525    -0.2530072    -0.9430789
O           0.8287252    -2.4258124     1.3044233
18
410_C7H8N2O_14-0-1-9 (60,) energy =    -456.3059563
C           1.3889518    -1.5521465     0.6173661
N           2.7381579    -1.6381385     0.2065057
H           3.1161846    -2.4979645     0.5916033
C           5.7146916     1.3739201     0.2262877
H           6.4908845     2.1334079     0.2253780
C           4.3752321     1.7301436     0.3789623
H           4.1012126     2.7744337     0.5052795
C           3.3677697     0.7639801     0.3844305
H           2.3340105     1.0594020     0.5218356
C           3.6981003    -0.5903409     0.2311714
C           5.0472273    -0.9481508     0.0741870
H           5.3093739    -1.9960591    -0.0538489
C           6.0426776     0.0245600     0.0768807
H           7.0802261    -0.2764863    -0.0416806
N           0.6399903    -0.6276632    -0.0736433
H          -0.3576844    -0.6966763     0.0709978
H           0.9477487    -0.3414199    -0.9927537
O           0.9228326    -2.3053270     1.4556877
18
410_C7H8N2O_14-0-1-9 (75,) energy =    -456.3030407
C           1.4246191    -1.5248641     0.6477480
N           2.7300217    -1.6251587     0.0815428
H           3.1209739    -2.5006686     0.4185383
C           5.7258663     1.3657560     0.2794145
H           6.5047869     2.1213221     0.3209455
C           4.3819947     1.7253162     0.3799173
H           4.1071347     2.7694757     0.5055684
C           3.3728797     0.7628927     0.3283403
H           2.3340865     1.0613242     0.4169145
C           3.7043606    -0.5911284     0.1760446
C           5.0569380    -0.9526511     0.0730073
H           5.3221647    -2.0003039    -0.0520164
C           6.0543865     0.0172200     0.1264510
H           7.0949952    -0.2866177     0.0484681
N           0.5862184    -0.7061602    -0.0612524
H          -0.3861241    -0.7107721     0.2111508
H           0.8114010    -0.4698000    -1.0163908
O           1.0773722    -2.1823638     1.6125889
18
410_C7H8N2O_14-0-1-9 (90,) energy =    -456.2999871
C           1.4550106    -1.4693663     0.6553290
N           2.7115679    -1.5853378    -0.0416852
H           3.1006884    -2.4838838     0.2345893
C           5.7404040     1.3550416     0.3332362
H           6.5234169     2.1027617     0.4174733
C           4.3969303     1.7281694     0.3861833
H           4.1267056     2.7731644     0.5149959
C           3.3832567     0.7764870     0.2778451
H           2.3433817     1.0836117     0.3217891
C           3.7071807    -0.5790767     0.1212662
C           5.0581653    -0.9536161     0.0688046
H           5.3183519    -2.0027261    -0.0555333
C           6.0622954     0.0060457     0.1727055
H           7.1023430    -0.3070202     0.1320332
N           0.5219055    -0.7913660    -0.0724602
H          -0.4164048    -0.7313609     0.2950551
H           0.6816810    -0.6030028    -1.0502352
O           1.2388693    -1.9916296     1.7324413
18
410_C7H8N2O_14-0-1-9 (105,) energy =    -456.2983498
C           1.3094828    -1.1532552     0.5546827
N           2.6860792    -1.4942475     0.7021044
H           2.9191545    -2.3315462     0.1762486
C           5.7078976     1.4278020     0.2388532
H           6.4896312     2.1728399     0.1234089
C           4.5026711     1.7567150     0.8636586
H           4.3439674     2.7636441     1.2409729
C           3.4953971     0.8076416     1.0270614
H           2.5701906     1.0562673     1.5344243
C           3.6825475    -0.4947159     0.5398750
C           4.8924706    -0.8289577    -0.0846991
H           5.0470797    -1.8405897    -0.4561210
C           5.8974839     0.1267078    -0.2279406
H           6.8295090    -0.1506589    -0.7135308
N           0.7593463    -1.5890154    -0.6313747
H          -0.1959852    -1.3010291    -0.7965584
H           1.3435343    -1.6905720    -1.4490664
O           0.6858048    -0.5297817     1.3915085
18
410_C7H8N2O_14-0-1-9 (120,) energy =    -456.3025547
C           1.3011056    -1.1153168     0.4984486
N           2.6736145    -1.4358429     0.5879281
H           2.9114801    -2.2763491     0.0719853
C           5.7630745     1.4343635     0.3045732
H           6.5637542     2.1646044     0.2319196
C           4.5503806     1.7703843     0.9100934
H           4.4047323     2.7684653     1.3151693
C           3.5174726     0.8407421     1.0200439
H           2.5852370     1.0935857     1.5101767
C           3.6887647    -0.4487910     0.4951677
C           4.9067115    -0.7913548    -0.1094530
H           5.0476191    -1.7938742    -0.5099758
C           5.9356455     0.1445404    -0.1989927
H           6.8728760    -0.1388917    -0.6707812
N           0.6599488    -1.7459859    -0.5520143
H          -0.3089103    -1.4798999    -0.6677902
H           1.1679586    -1.9237511    -1.4072237
O           0.7333200    -0.3628396     1.2695478
18
410_C7H8N2O_14-0-1-9 (135,) energy =    -456.3063598
C           1.2924330    -1.0828987     0.4330860
N           2.6615190    -1.3751834     0.4489755
H           2.9102329    -2.2275554    -0.0386972
C           5.8116662     1.4369563     0.3715417
H           6.6298566     2.1509290     0.3486610
C           4.5870429     1.7798651     0.9476991
H           4.4494844     2.7675801     1.3800771
C           3.5301401     0.8715194     0.9941249
H           2.5875531     1.1303587     1.4588185
C           3.6919430    -0.4041382     0.4333811
C           4.9223469    -0.7540137    -0.1422617
H           5.0544082    -1.7457247    -0.5717893
C           5.9732101     0.1603933    -0.1686237
H           6.9190358    -0.1287975    -0.6191750
N           0.5796586    -1.8740356    -0.4571680
H          -0.3978417    -1.6215577    -0.5200432
H           1.0097994    -2.1209594    -1.3383592
O           0.7644983    -0.2401774     1.1393433
18
410_C7H8N2O_14-0-1-9 (150,) energy =    -456.3091975
C           1.2893285    -1.0627092     0.3738760
N           2.6543663    -1.3178151     0.2894340
H           2.9054120    -2.1803398    -0.1762226
C           5.8561517     1.4272281     0.4418793
H           6.6891928     2.1233439     0.4759193
C           4.6148185     1.7811486     0.9729559
H           4.4785899     2.7593998     1.4268025
C           3.5358800     0.8977813     0.9459091
H           2.5790044     1.1665721     1.3724355
C           3.6959906    -0.3661551     0.3580617
C           4.9440582    -0.7268777    -0.1731063
H           5.0744799    -1.7088488    -0.6249417
C           6.0142340     0.1631797    -0.1282876
H           6.9725410    -0.1349448    -0.5453985
N           0.5259817    -1.9761976    -0.3486089
H          -0.4567428    -1.7354258    -0.3535415
H           0.8763803    -2.2873171    -1.2456174
O           0.7903557    -0.1664772     1.0361463
18
410_C7H8N2O_14-0-1-9 (165,) energy =    -456.3108724
C           1.2876244    -1.0509049     0.3253666
N           2.6416806    -1.2491628     0.1068099
H           2.9030063    -2.1272848    -0.3205680
C           5.8898611     1.4110346     0.5150356
H           6.7361572     2.0848777     0.6121627
C           4.6311692     1.7804936     0.9912357
H           4.4941646     2.7490021     1.4653184
C           3.5331158     0.9273863     0.8809226
H           2.5622579     1.2104152     1.2630267
C           3.6943674    -0.3252955     0.2690025
C           4.9601040    -0.7007523    -0.2089980
H           5.0906799    -1.6725947    -0.6822370
C           6.0469479     0.1603874    -0.0844075
H           7.0180950    -0.1500776    -0.4607728
N           0.5011868    -2.0537380    -0.2433099
H          -0.4850396    -1.8351339    -0.1825267
H           0.7776511    -2.4141296    -1.1484252
O           0.8095938    -0.1349073     0.9771886
18
410_C7H8N2O_14-0-1-9 (180,) energy =    -456.3114609
C           1.2896154    -1.0429892     0.2900353
N           2.6178199    -1.1660426    -0.0821785
H           2.8910987    -2.0563684    -0.4756032
C           5.9117656     1.3830941     0.5888014
H           6.7701795     2.0285505     0.7508314
C           4.6394832     1.7774462     1.0046684
H           4.5034751     2.7373553     1.4962056
C           3.5246975     0.9623260     0.8075733
H           2.5426604     1.2667829     1.1407598
C           3.6848538    -0.2807328     0.1761129
C           4.9640142    -0.6799951    -0.2435988
H           5.0935784    -1.6426795    -0.7355233
C           6.0659896     0.1452364    -0.0373722
H           7.0471840    -0.1839502    -0.3690894
N           0.5106504    -2.1187778    -0.1417355
H          -0.4763281    -1.9391279    -0.0073248
H           0.7221489    -2.5196629    -1.0477891
O           0.8272510    -0.1301715     0.9574296
