26
082_C14H12_2-0-21-19 (-165,) energy =    -540.7098188
C           1.2949892    -0.7684832    -0.5987317
H           1.3083340     0.0950908    -1.2624718
C           2.3735404    -1.0108423     0.1737321
H           2.3807223    -1.9082047     0.7912441
C           5.9984735     1.2613548     0.4968175
H           6.9224254     1.8264343     0.5839210
C           4.9134390     1.7894131    -0.2098640
H           4.9918002     2.7704108    -0.6713981
C           3.7269566     1.0714858    -0.3212219
H           2.8915709     1.5086118    -0.8603040
C           3.5926827    -0.2017592     0.2670136
C           4.6923163    -0.7126706     0.9817439
H           4.6085585    -1.6914397     1.4488787
C           5.8807111     0.0060827     1.0946466
H           6.7145346    -0.4147011     1.6504854
C          -2.2674652    -3.1290403    -0.9745329
H          -3.1705964    -3.7235323    -1.0818816
C          -1.9623623    -2.1362105    -1.9065992
H          -2.6262952    -1.9539658    -2.7476009
C          -0.8050239    -1.3738615    -1.7619382
H          -0.5721442    -0.6034784    -2.4936927
C           0.0805259    -1.5854106    -0.6886340
C          -0.2502085    -2.5837112     0.2486758
H           0.3947082    -2.7521037     1.1062410
C          -1.4054793    -3.3458696     0.1048072
H          -1.6405421    -4.1083151     0.8430182
26
082_C14H12_2-0-21-19 (-150,) energy =    -540.7091612
C           1.2507088    -0.6937658    -0.5628934
H           1.2367552     0.2139676    -1.1652090
C           2.3627951    -1.0029726     0.1334981
H           2.3898910    -1.9560453     0.6611129
C           6.0026487     1.2379725     0.5019192
H           6.9305116     1.7949999     0.5989102
C           4.8817314     1.8332932    -0.0850504
H           4.9360550     2.8583080    -0.4426755
C           3.6900685     1.1256169    -0.2075971
H           2.8260544     1.6132446    -0.6496300
C           3.5871098    -0.2034026     0.2480276
C           4.7226410    -0.7825818     0.8441551
H           4.6630141    -1.8058324     1.2082677
C           5.9162809    -0.0742619     0.9684166
H           6.7785749    -0.5475633     1.4307072
C          -2.2265266    -3.1702889    -0.9752126
H          -3.1043185    -3.8001517    -1.0911622
C          -1.8610469    -2.2796131    -1.9865552
H          -2.4506181    -2.2168007    -2.8975060
C          -0.7387495    -1.4684398    -1.8324417
H          -0.4565752    -0.7800363    -2.6258687
C           0.0490627    -1.5311505    -0.6683973
C          -0.3395876    -2.4265142     0.3456948
H           0.2316439    -2.4671427     1.2689327
C          -1.4614316    -3.2372458     0.1922293
H          -1.7469484    -3.9166337     0.9912632
26
082_C14H12_2-0-21-19 (-135,) energy =    -540.7075477
C           1.2050831    -0.6215548    -0.5113560
H           1.1634841     0.3303168    -1.0404906
C           2.3474857    -0.9910035     0.0992368
H           2.3920638    -1.9871105     0.5396806
C           6.0059174     1.2147002     0.4971696
H           6.9384611     1.7628166     0.5999941
C           4.8578487     1.8603814     0.0277806
H           4.8956754     2.9151867    -0.2319474
C           3.6602615     1.1637653    -0.1014478
H           2.7752722     1.6883931    -0.4498230
C           3.5787803    -0.2027437     0.2293401
C           4.7413843    -0.8334236     0.7085714
H           4.6982787    -1.8870285     0.9753927
C           5.9411982    -0.1364786     0.8393521
H           6.8250635    -0.6491537     1.2097811
C          -2.1870387    -3.2066671    -0.9740773
H          -3.0386252    -3.8697544    -1.1003844
C          -1.7482539    -2.4149443    -2.0380950
H          -2.2527729    -2.4664759    -2.9994712
C          -0.6598834    -1.5606913    -1.8735080
H          -0.3183803    -0.9522822    -2.7077753
C           0.0147064    -1.4788029    -0.6422395
C          -0.4386772    -2.2811098     0.4194831
H           0.0586445    -2.2139092     1.3832927
C          -1.5283439    -3.1349225     0.2551535
H          -1.8691201    -3.7398533     1.0914962
26
082_C14H12_2-0-21-19 (-120,) energy =    -540.7051145
C           1.1729947    -0.5755822    -0.4570004
H           1.0959711     0.4230761    -0.8876956
C           2.3451935    -0.9890815     0.0574850
H           2.4134645    -2.0217869     0.4001641
C           6.0068586     1.2057061     0.4940730
H           6.9402383     1.7508114     0.6051310
C           4.8338302     1.8821465     0.1453110
H           4.8531756     2.9575079    -0.0119069
C           3.6353219     1.1888345     0.0058467
H           2.7313599     1.7351151    -0.2477650
C           3.5781283    -0.2036391     0.2056616
C           4.7654880    -0.8661195     0.5649838
H           4.7411496    -1.9409961     0.7297979
C           5.9665410    -0.1728313     0.7054764
H           6.8702376    -0.7098909     0.9814622
C          -2.1661615    -3.2262223    -0.9736680
H          -3.0015083    -3.9077883    -1.1101965
C          -1.6269106    -2.5470112    -2.0692310
H          -2.0358343    -2.7066849    -3.0636170
C          -0.5577738    -1.6704125    -1.8940952
H          -0.1358111    -1.1518767    -2.7516992
C          -0.0088475    -1.4505550    -0.6190486
C          -0.5539383    -2.1468754     0.4716953
H          -0.1385469    -1.9836941     1.4624804
C          -1.6256767    -3.0232605     0.2968032
H          -2.0400085    -3.5456505     1.1552914
26
082_C14H12_2-0-21-19 (-105,) energy =    -540.7027190
C           1.1628598    -0.5683071    -0.4030121
H           1.0257695     0.4791983    -0.6742079
C           2.3718668    -1.0060710    -0.0146385
H           2.4830235    -2.0707701     0.1919691
C           6.0083168     1.2157461     0.5041402
H           6.9353688     1.7671616     0.6353378
C           4.8119784     1.8975272     0.2608682
H           4.8070664     2.9830619     0.2053601
C           3.6218063     1.1956196     0.0951178
H           2.7011683     1.7450653    -0.0792361
C           3.5959632    -0.2100727     0.1636696
C           4.8066709    -0.8786456     0.4163240
H           4.8069632    -1.9646167     0.4779681
C           5.9998099    -0.1770489     0.5827420
H           6.9219967    -0.7191513     0.7749686
C          -2.1805212    -3.2148396    -0.9694271
H          -3.0191831    -3.8905237    -1.1149702
C          -1.5228281    -2.6646156    -2.0721425
H          -1.8433103    -2.9173627    -3.0796218
C          -0.4468079    -1.7973931    -1.8861466
H           0.0678773    -1.3787096    -2.7473159
C          -0.0118857    -1.4595747    -0.5943815
C          -0.6739998    -2.0270262     0.5045693
H          -0.3402036    -1.7785234     1.5083607
C          -1.7522605    -2.8943720     0.3191924
H          -2.2557432    -3.3205583     1.1831783
26
082_C14H12_2-0-21-19 (-90,) energy =    -540.7017224
C           1.1640492    -0.5926408    -0.3369845
H           0.9536408     0.4775062    -0.3570690
C           2.4158229    -1.0276220    -0.1239548
H           2.5821335    -2.1050407    -0.1117395
C           6.0047807     1.2361971     0.5333950
H           6.9198396     1.7979136     0.7002578
C           4.7923134     1.9061444     0.3424544
H           4.7633211     2.9925689     0.3607558
C           3.6178461     1.1911371     0.1283112
H           2.6873141     1.7321815    -0.0172564
C           3.6231521    -0.2160967     0.0991458
C           4.8507884    -0.8728471     0.2936163
H           4.8763159    -1.9601128     0.2749533
C           6.0285420    -0.1582494     0.5082904
H           6.9639305    -0.6917298     0.6556183
C          -2.2143103    -3.1850284    -0.9686378
H          -3.0685495    -3.8376201    -1.1284184
C          -1.4481686    -2.7533530    -2.0526889
H          -1.7023312    -3.0705996    -3.0608440
C          -0.3512055    -1.9154395    -1.8469408
H           0.2450589    -1.5824574    -2.6923617
C           0.0002115    -1.4977617    -0.5544490
C          -0.7791049    -1.9363805     0.5266305
H          -0.5165681    -1.6200183     1.5326956
C          -1.8762122    -2.7743682     0.3219407
H          -2.4652905    -3.1082066     1.1723308
26
082_C14H12_2-0-21-19 (-75,) energy =    -540.7027843
C           1.1667415    -0.6276122    -0.2737803
H           0.9198458     0.4125522    -0.0584817
C           2.4447508    -1.0378388    -0.2228337
H           2.6435034    -2.0965110    -0.3914723
C           5.9943970     1.2464859     0.5597547
H           6.8994743     1.8137010     0.7592158
C           4.7659179     1.9024242     0.4335096
H           4.7146788     2.9836269     0.5328716
C           3.6045114     1.1804461     0.1759875
H           2.6624746     1.7110012     0.0715135
C           3.6388425    -0.2202679     0.0404845
C           4.8833138    -0.8624448     0.1653020
H           4.9318105    -1.9440320     0.0606058
C           6.0478744    -0.1407664     0.4231895
H           6.9965208    -0.6629218     0.5163675
C          -2.2255812    -3.1780018    -0.9746687
H          -3.0884208    -3.8147329    -1.1512220
C          -1.3557890    -2.8675269    -2.0204703
H          -1.5404949    -3.2585702    -3.0177512
C          -0.2492178    -2.0472844    -1.7925263
H           0.4224952    -1.7984286    -2.6096298
C           0.0146628    -1.5364557    -0.5127510
C          -0.8795273    -1.8402021     0.5266209
H          -0.6962269    -1.4387706     1.5201796
C          -1.9843172    -2.6602874     0.3001181
H          -2.6581286    -2.8953667     1.1200650
26
082_C14H12_2-0-21-19 (-60,) energy =    -540.7051343
C           1.1637260    -0.6527773    -0.1958599
H           0.9175419     0.3339016     0.1967683
C           2.4514268    -1.0310137    -0.2880873
H           2.6585176    -2.0539538    -0.6035392
C           5.9891546     1.2434741     0.5649915
H           6.8912766     1.8088309     0.7822878
C           4.7484562     1.8869074     0.5212422
H           4.6848665     2.9569445     0.7014465
C           3.5909509     1.1675984     0.2397374
H           2.6392266     1.6890997     0.1933920
C           3.6416003    -0.2187243    -0.0007124
C           4.8988429    -0.8476271     0.0387147
H           4.9600573    -1.9171294    -0.1498310
C           6.0591428    -0.1283136     0.3202378
H           7.0177259    -0.6398509     0.3469561
C          -2.2240319    -3.1740602    -0.9797479
H          -3.0870391    -3.8041005    -1.1777985
C          -1.2608081    -2.9706170    -1.9687926
H          -1.3748123    -3.4356738    -2.9446463
C          -0.1561296    -2.1564231    -1.7154736
H           0.5832289    -1.9817623    -2.4924299
C           0.0169896    -1.5489291    -0.4613518
C          -0.9765237    -1.7377184     0.5148756
H          -0.8707188    -1.2531165     1.4825728
C          -2.0790942    -2.5518501     0.2629723
H          -2.8286456    -2.6988367     1.0363511
26
082_C14H12_2-0-21-19 (-45,) energy =    -540.7075643
C           1.1635068    -0.6804889    -0.1298323
H           0.9253819     0.2579477     0.3701403
C           2.4523749    -1.0198276    -0.3252251
H           2.6607410    -2.0050923    -0.7427071
C           5.9894521     1.2424992     0.5582698
H           6.8919061     1.8048969     0.7817206
C           4.7371226     1.8593768     0.6387868
H           4.6646916     2.9062276     0.9222557
C           3.5790111     1.1443462     0.3496075
H           2.6175928     1.6471995     0.4007136
C           3.6403394    -0.2124815    -0.0229327
C           4.9092951    -0.8139328    -0.1071170
H           4.9790867    -1.8595382    -0.3986414
C           6.0700523    -0.0985372     0.1814980
H           7.0374131    -0.5889198     0.1107406
C          -2.2244972    -3.1704935    -0.9857199
H          -3.0872718    -3.7952577    -1.2004504
C          -1.1695557    -3.0915681    -1.8971582
H          -1.2128516    -3.6479949    -2.8299362
C          -0.0664017    -2.2834772    -1.6259804
H           0.7385444    -2.2016779    -2.3512961
C           0.0161252    -1.5547775    -0.4263258
C          -1.0688195    -1.6193746     0.4662350
H          -1.0342402    -1.0407294     1.3864607
C          -2.1712363    -2.4273528     0.1960615
H          -2.9923582    -2.4743553     0.9066940
26
082_C14H12_2-0-21-19 (-30,) energy =    -540.7091863
C           1.1788828    -0.7269229    -0.0810088
H           0.9509431     0.1644349     0.5023880
C           2.4644410    -1.0149181    -0.3671559
H           2.6800825    -1.9534188    -0.8773826
C           5.9875740     1.2482368     0.5650927
H           6.8867904     1.8113111     0.7995449
C           4.7269735     1.8212430     0.7601018
H           4.6447180     2.8348087     1.1440517
C           3.5725617     1.1059699     0.4575745
H           2.6038936     1.5763559     0.5994628
C           3.6459755    -0.2085704    -0.0434984
C           4.9231277    -0.7652857    -0.2415707
H           5.0026086    -1.7769879    -0.6331278
C           6.0799434    -0.0492915     0.0601844
H           7.0534943    -0.5050830    -0.1002194
C          -2.2415914    -3.1500459    -0.9899154
H          -3.1125229    -3.7599528    -1.2139515
C          -1.1147816    -3.2023139    -1.8147501
H          -1.1106340    -3.8480089    -2.6891571
C          -0.0003494    -2.4156258    -1.5344787
H           0.8572182    -2.4400866    -2.2010245
C           0.0219493    -1.5690610    -0.4101008
C          -1.1307373    -1.5087103     0.3944698
H          -1.1406148    -0.8448400     1.2560135
C          -2.2458806    -2.2956461     0.1144931
H          -3.1206115    -2.2394144     0.7571790
26
082_C14H12_2-0-21-19 (-15,) energy =    -540.7098265
C           1.1995307    -0.7811746    -0.0499050
H           0.9779638     0.0681654     0.5950448
C           2.4793633    -1.0088245    -0.4090777
H           2.7040221    -1.8914688    -1.0066616
C           5.9844714     1.2614163     0.5753932
H           6.8797096     1.8260277     0.8210401
C           4.7215590     1.7661284     0.9008422
H           4.6331314     2.7283345     1.3986978
C           3.5721350     1.0486239     0.5855619
H           2.6017054     1.4678306     0.8346258
C           3.6520966    -0.2007684    -0.0609921
C           4.9314090    -0.6884515    -0.3874934
H           5.0164945    -1.6486476    -0.8914827
C           6.0832601     0.0298886    -0.0730236
H           7.0581073    -0.3727708    -0.3353388
C          -2.2691521    -3.1235323    -0.9904834
H          -3.1532239    -3.7122698    -1.2193646
C          -1.0845903    -3.3255616    -1.7053446
H          -1.0474115    -4.0697178    -2.4967861
C           0.0488055    -2.5707286    -1.4194884
H           0.9517592    -2.7269252    -2.0025394
C           0.0328330    -1.5969596    -0.4015438
C          -1.1727713    -1.3973169     0.2968021
H          -1.2105757    -0.6430949     1.0797062
C          -2.3084011    -2.1523508     0.0109487
H          -3.2246864    -1.9807281     0.5697627
26
082_C14H12_2-0-21-19 (0,) energy =    -540.7098627
C           1.2149819    -0.8279672    -0.0118635
H           1.0012284    -0.0195869     0.6859788
C           2.4834780    -0.9947203    -0.4384550
H           2.7005673    -1.8113059    -1.1256148
C           5.9828158     1.2710899     0.5777929
H           6.8765874     1.8356158     0.8288932
C           4.7318533     1.6876465     1.0439966
H           4.6514493     2.5808218     1.6582328
C           3.5840806     0.9697531     0.7240202
H           2.6228959     1.3188118     1.0896667
C           3.6536868    -0.1914540    -0.0712919
C           4.9208874    -0.5916056    -0.5356098
H           4.9980355    -1.4830754    -1.1541401
C           6.0711355     0.1268610    -0.2156782
H           7.0363071    -0.2073915    -0.5871488
C          -2.2866989    -3.0995578    -1.0076225
H          -3.1808819    -3.6667578    -1.2511595
C          -1.0552995    -3.4472652    -1.5721486
H          -0.9911313    -4.2883406    -2.2576869
C           0.0924725    -2.7242720    -1.2641040
H           1.0365793    -3.0135993    -1.7161475
C           0.0431723    -1.6287146    -0.3791175
C          -1.2050747    -1.2944242     0.1791641
H          -1.2667455    -0.4525926     0.8652945
C          -2.3554219    -2.0178012    -0.1292398
H          -3.3053912    -1.7358813     0.3172253
26
082_C14H12_2-0-21-19 (15,) energy =    -540.7098264
C           1.2138173    -0.8277408     0.0210852
H           0.9995535    -0.0012710     0.6974303
C           2.4770111    -0.9966605    -0.4200541
H           2.6753263    -1.7891393    -1.1406518
C           5.9814020     1.2830285     0.5449054
H           6.8750854     1.8550911     0.7786936
C           4.7947807     1.5103926     1.2490524
H           4.7652860     2.2597690     2.0358708
C           3.6487968     0.7782639     0.9556579
H           2.7431476     0.9618724     1.5262676
C           3.6540018    -0.2013682    -0.0571264
C           4.8596274    -0.4214209    -0.7493671
H           4.8883909    -1.1764111    -1.5319272
C           6.0081990     0.3107308    -0.4554847
H           6.9245428     0.1208157    -1.0082131
C          -2.2800790    -3.0832837    -1.0319839
H          -3.1719584    -3.6451737    -1.2954618
C          -1.0128166    -3.5929635    -1.3307870
H          -0.9170865    -4.5571370    -1.8234574
C           0.1322602    -2.8793479    -0.9907516
H           1.1074267    -3.3041257    -1.2104900
C           0.0423461    -1.6281284    -0.3495981
C          -1.2411560    -1.1383261    -0.0433427
H          -1.3340881    -0.1790674     0.4610555
C          -2.3882900    -1.8525371    -0.3830473
H          -3.3671459    -1.4479602    -0.1392116
26
082_C14H12_2-0-21-19 (30,) energy =    -540.7091862
C           1.2123469    -0.8437352     0.0850030
H           1.0154969    -0.0624477     0.8182602
C           2.4512547    -0.9626033    -0.4331275
H           2.6092136    -1.6928775    -1.2264522
C           5.9843140     1.2699239     0.5345280
H           6.8841814     1.8319623     0.7689626
C           4.8453903     1.3979715     1.3357440
H           4.8599729     2.0588665     2.1985903
C           3.6918872     0.6774384     1.0423658
H           2.8242958     0.7777910     1.6880679
C           3.6422251    -0.1887543    -0.0674523
C           4.8006906    -0.3114544    -0.8568705
H           4.7856197    -0.9793957    -1.7152397
C           5.9568259     0.4090159    -0.5632581
H           6.8364029     0.2968332    -1.1917820
C          -2.2590569    -3.0858040    -1.0636457
H          -3.1434503    -3.6476558    -1.3515167
C          -0.9909873    -3.6613804    -1.1798823
H          -0.8873125    -4.6777883    -1.5509507
C           0.1435348    -2.9465372    -0.8040439
H           1.1213156    -3.4157575    -0.8679646
C           0.0394007    -1.6293391    -0.3187557
C          -1.2466193    -1.0748906    -0.1831047
H          -1.3489913    -0.0657933     0.2097263
C          -2.3819576    -1.7896435    -0.5590628
H          -3.3640174    -1.3356890    -0.4548919
26
082_C14H12_2-0-21-19 (45,) energy =    -540.7075643
C           1.2188085    -0.8774627     0.1449439
H           1.0421179    -0.1609167     0.9466202
C           2.4283535    -0.9273964    -0.4458403
H           2.5473239    -1.5873718    -1.3053361
C           5.9866736     1.2621177     0.5306053
H           6.8922589     1.8142953     0.7665284
C           4.8925671     1.2989415     1.4006244
H           4.9478982     1.8786267     2.3184478
C           3.7322866     0.5901904     1.1047623
H           2.9004615     0.6176436     1.8027014
C           3.6310017    -0.1719428    -0.0752410
C           4.7446830    -0.2042741    -0.9341701
H           4.6891802    -0.7915397    -1.8480565
C           5.9076698     0.5045670    -0.6384611
H           6.7523880     0.4638003    -1.3211450
C          -2.2477135    -3.0851391    -1.0880132
H          -3.1295393    -3.6414432    -1.3941641
C          -1.0015238    -3.7133760    -1.0412328
H          -0.9114621    -4.7648171    -1.3018462
C           0.1285833    -3.0023322    -0.6402768
H           1.0910458    -3.5026596    -0.5765953
C           0.0406567    -1.6409784    -0.2997458
C          -1.2265713    -1.0313426    -0.3205832
H          -1.3176741     0.0137809    -0.0337704
C          -2.3561925    -1.7413044    -0.7218893
H          -3.3237867    -1.2466664    -0.7451876
26
082_C14H12_2-0-21-19 (60,) energy =    -540.7051343
C           1.2409418    -0.9303243     0.1880370
H           1.0926574    -0.2998826     1.0648858
C           2.4161405    -0.8966215    -0.4658237
H           2.5013796    -1.4736909    -1.3869820
C           5.9848455     1.2688047     0.5297959
H           6.8921483     1.8162081     0.7702479
C           4.9381095     1.2003602     1.4544194
H           5.0322281     1.6928462     2.4188341
C           3.7756957     0.4974443     1.1524629
H           2.9811160     0.4417281     1.8909971
C           3.6254572    -0.1529652    -0.0871448
C           4.6917256    -0.0808924    -1.0012534
H           4.5973342    -0.5814964    -1.9622984
C           5.8568183     0.6225465    -0.7000720
H           6.6646381     0.6643000    -1.4259912
C          -2.2496335    -3.0805158    -1.0930313
H          -3.1369272    -3.6229185    -1.4084060
C          -1.0477825    -3.7590141    -0.8866431
H          -0.9971275    -4.8349347    -1.0329173
C           0.0895507    -3.0625870    -0.4757110
H           1.0200189    -3.5941066    -0.2953548
C           0.0515520    -1.6718498    -0.2853269
C          -1.1731309    -1.0063803    -0.4670179
H          -1.2255647     0.0665694    -0.2982298
C          -2.3088708    -1.7009860    -0.8788069
H          -3.2429306    -1.1659364    -1.0298399
26
082_C14H12_2-0-21-19 (75,) energy =    -540.7027730
C           1.2619989    -0.9813558     0.2242484
H           1.1561233    -0.4724999     1.1830429
C           2.3966228    -0.8525172    -0.4829223
H           2.4354362    -1.3281019    -1.4632625
C           5.9877260     1.2722934     0.5302483
H           6.9001357     1.8098961     0.7735620
C           4.9974796     1.0895515     1.5003197
H           5.1408706     1.4832648     2.5032768
C           3.8290017     0.3986174     1.1935122
H           3.0797140     0.2538842     1.9664743
C           3.6154810    -0.1251005    -0.0954893
C           4.6255905     0.0606458    -1.0555820
H           4.4821759    -0.3415463    -2.0559895
C           5.7967906     0.7524107    -0.7501335
H           6.5601999     0.8836385    -1.5125340
C          -2.2533909    -3.0774997    -1.0992433
H          -3.1457656    -3.6049084    -1.4256917
C          -1.1167453    -3.7907939    -0.7177134
H          -1.1206798    -4.8775524    -0.7417711
C           0.0283303    -3.1120370    -0.2962487
H           0.9099813    -3.6688677     0.0091771
C           0.0613950    -1.7097921    -0.2632292
C          -1.0959999    -1.0047217    -0.6311004
H          -1.0896001     0.0817958    -0.5959744
C          -2.2397351    -1.6814354    -1.0533620
H          -3.1218330    -1.1181658    -1.3470096
26
082_C14H12_2-0-21-19 (90,) energy =    -540.7017284
C           1.2865574    -1.0439678     0.2796101
H           1.2926858    -0.7673110     1.3347520
C           2.3387646    -0.7472672    -0.4990390
H           2.2916505    -1.0422648    -1.5475695
C           6.0017523     1.2456416     0.5250350
H           6.9330005     1.7481778     0.7718792
C           5.0237039     1.0537804     1.5058500
H           5.1939600     1.4081265     2.5192350
C           3.8295182     0.4107778     1.1944861
H           3.0834586     0.2732641     1.9718463
C           3.5797673    -0.0592355    -0.1085403
C           4.5737165     0.1429998    -1.0818947
H           4.4000728    -0.2123875    -2.0951537
C           5.7707951     0.7869755    -0.7718554
H           6.5221957     0.9297719    -1.5440364
C          -2.2449588    -3.0761857    -1.1102210
H          -3.1374165    -3.5891059    -1.4588831
C          -1.1617712    -3.8069529    -0.6191803
H          -1.2065221    -4.8925467    -0.5859798
C          -0.0159227    -3.1477314    -0.1716726
H           0.8269540    -3.7190343     0.2082306
C           0.0677658    -1.7477497    -0.2105234
C          -1.0284625    -1.0243609    -0.7039937
H          -0.9754725     0.0605846    -0.7396413
C          -2.1746967    -1.6826555    -1.1517609
H          -3.0121819    -1.1056534    -1.5355685
26
082_C14H12_2-0-21-19 (105,) energy =    -540.7027190
C           1.3051543    -1.0923900     0.3219659
H           1.4403482    -1.0415267     1.4030518
C           2.2724071    -0.6430487    -0.4945471
H           2.1264108    -0.7642261    -1.5681528
C           6.0091293     1.2138635     0.5145440
H           6.9592306     1.6815192     0.7580589
C           5.0618584     0.9807300     1.5163169
H           5.2738443     1.2703486     2.5423161
C           3.8425521     0.3847633     1.2084879
H           3.1149626     0.2253030     1.9990862
C           3.5382695     0.0006613    -0.1110606
C           4.4992629     0.2494589    -1.1066693
H           4.2812437    -0.0353722    -2.1335424
C           5.7211790     0.8464893    -0.8000879
H           6.4470890     1.0254062    -1.5889509
C          -2.2216628    -3.0721443    -1.1430232
H          -3.1077289    -3.5755324    -1.5206191
C          -1.2152580    -3.8038912    -0.5082165
H          -1.3121548    -4.8808839    -0.3973101
C          -0.0782477    -3.1584587    -0.0233138
H           0.7065855    -3.7332902     0.4618785
C           0.0713098    -1.7687837    -0.1588596
C          -0.9415592    -1.0467463    -0.8075833
H          -0.8319322     0.0279560    -0.9249169
C          -2.0808640    -1.6920872    -1.2921840
H          -2.8572153    -1.1149794    -1.7879890
26
082_C14H12_2-0-21-19 (120,) energy =    -540.7051145
C           1.3266327    -1.1424853     0.3271887
H           1.5492982    -1.2438453     1.3896834
C           2.2319600    -0.5756740    -0.4906339
H           2.0168640    -0.5685964    -1.5593967
C           6.0084077     1.2010575     0.5079849
H           6.9684184     1.6492248     0.7492254
C           5.1095560     0.8712241     1.5270411
H           5.3688845     1.0666239     2.5643750
C           3.8773006     0.3007654     1.2226086
H           3.1854776     0.0685725     2.0271926
C           3.5119296     0.0382692    -0.1114758
C           4.4243299     0.3849942    -1.1239587
H           4.1584243     0.1958958    -2.1615770
C           5.6587372     0.9568755    -0.8204683
H           6.3463806     1.2127673    -1.6223002
C          -2.2087609    -3.0771288    -1.1563937
H          -3.0948184    -3.5736812    -1.5428058
C          -1.2928949    -3.7833483    -0.3722886
H          -1.4597071    -4.8352493    -0.1550428
C          -0.1581551    -3.1461036     0.1261463
H           0.5561636    -3.7030986     0.7277455
C           0.0819054    -1.7879888    -0.1445869
C          -0.8414903    -1.0927200    -0.9418622
H          -0.6669681    -0.0418670    -1.1565320
C          -1.9787218    -1.7301527    -1.4395032
H          -2.6867440    -1.1721300    -2.0468576
26
082_C14H12_2-0-21-19 (135,) energy =    -540.7075477
C           1.3622107    -1.2015375     0.2905840
H           1.6345897    -1.4026400     1.3265096
C           2.2232296    -0.5369866    -0.5040347
H           1.9678193    -0.4318072    -1.5585064
C           6.0084001     1.2065675     0.5158035
H           6.9702558     1.6478570     0.7622576
C           5.1579724     0.7593320     1.5316999
H           5.4569007     0.8562088     2.5722576
C           3.9233916     0.1975375     1.2212374
H           3.2694678    -0.1262279     2.0258278
C           3.5067381     0.0607032    -0.1170755
C           4.3712823     0.5245209    -1.1252943
H           4.0657756     0.4336481    -2.1652668
C           5.6076459     1.0882771    -0.8154989
H           6.2571611     1.4361274    -1.6144993
C          -2.2247971    -3.0752500    -1.1327729
H          -3.1253861    -3.5595178    -1.5005529
C          -1.3912255    -3.7353662    -0.2267396
H          -1.6368809    -4.7402938     0.1067462
C          -0.2397544    -3.1113693     0.2487908
H           0.4091088    -3.6333014     0.9483275
C           0.1048280    -1.8140438    -0.1707424
C          -0.7440004    -1.1621016    -1.0823186
H          -0.5028667    -0.1513200    -1.4000438
C          -1.8966835    -1.7859643    -1.5571766
H          -2.5447266    -1.2608691    -2.2542087
26
082_C14H12_2-0-21-19 (150,) energy =    -540.7091612
C           1.4050524    -1.2637641     0.2253803
H           1.7139406    -1.5417536     1.2324897
C           2.2268596    -0.5059953    -0.5280955
H           1.9408700    -0.3093535    -1.5610531
C           6.0084523     1.2176975     0.5370381
H           6.9690085     1.6554834     0.7945094
C           5.2040417     0.6502843     1.5301950
H           5.5377586     0.6497762     2.5646682
C           3.9713230     0.0923428     1.2061719
H           3.3540149    -0.3262820     1.9957151
C           3.5097934     0.0794547    -0.1247336
C           4.3287789     0.6631906    -1.1089906
H           3.9887145     0.6693151    -2.1421863
C           5.5630609     1.2232973    -0.7853215
H           6.1762888     1.6649825    -1.5664383
C          -2.2551949    -3.0721923    -1.0885975
H          -3.1770660    -3.5412308    -1.4215330
C          -1.4859752    -3.6658355    -0.0858111
H          -1.8036927    -4.6036987     0.3623397
C          -0.3077047    -3.0588477     0.3437785
H           0.2895032    -3.5286834     1.1220098
C           0.1342716    -1.8484968    -0.2212779
C          -0.6585198    -1.2580781    -1.2232728
H          -0.3571502    -0.3052108    -1.6493526
C          -1.8364426    -1.8642348    -1.6527417
H          -2.4365578    -1.3869713    -2.4232118
26
082_C14H12_2-0-21-19 (165,) energy =    -540.7098187
C           1.4421268    -1.3123637     0.1540859
H           1.7841391    -1.6563276     1.1293838
C           2.2254244    -0.4690304    -0.5487262
H           1.9082388    -0.1749286    -1.5484909
C           6.0101637     1.2195230     0.5611898
H           6.9710132     1.6499113     0.8297471
C           5.2575152     0.5261177     1.5142133
H           5.6321012     0.4194532     2.5290132
C           4.0249681    -0.0236755     1.1764020
H           3.4499376    -0.5432672     1.9372716
C           3.5106031     0.0986705    -0.1296079
C           4.2782830     0.8076755    -1.0724994
H           3.8975769     0.9192568    -2.0853329
C           5.5124095     1.3595211    -0.7348109
H           6.0847721     1.8995664    -1.4844973
C          -2.2864986    -3.0662147    -1.0400135
H          -3.2279677    -3.5208419    -1.3358871
C          -1.5755283    -3.5651098     0.0523108
H          -1.9591767    -4.4141068     0.6120621
C          -0.3707561    -2.9757419     0.4300751
H           0.1794107    -3.3715015     1.2808861
C           0.1590754    -1.8785193    -0.2744197
C          -0.5785700    -1.3812206    -1.3667170
H          -0.2145785    -0.5159841    -1.9131312
C          -1.7815424    -1.9694115    -1.7450322
H          -2.3339184    -1.5655442    -2.5896061
26
082_C14H12_2-0-21-19 (180,) energy =    -540.7098521
C           1.3255805    -0.8201108    -0.6349183
H           1.3661611    -0.0005476    -1.3511676
C           2.3676087    -0.9971399     0.2026996
H           2.3379704    -1.8268469     0.9076894
C           5.9986281     1.2723467     0.4976933
H           6.9237342     1.8360508     0.5813303
C           4.9725809     1.7200046    -0.3403224
H           5.0982638     2.6375985    -0.9093269
C           3.7856623     1.0024996    -0.4484103
H           2.9997359     1.3786332    -1.0965773
C           3.5893540    -0.1899341     0.2765813
C           4.6308851    -0.6198607     1.1200955
H           4.4991827    -1.5351960     1.6928458
C           5.8203486     0.0977756     1.2292628
H           6.6076992    -0.2608463     1.8870813
C          -2.2947754    -3.1011569    -0.9587137
H          -3.2153613    -3.6709812    -1.0504182
C          -2.0590377    -2.0023740    -1.7854820
H          -2.7967811    -1.7091565    -2.5277861
C          -0.8760588    -1.2764468    -1.6619483
H          -0.7000031    -0.4215546    -2.3111341
C           0.1027302    -1.6249638    -0.7121676
C          -0.1529827    -2.7382218     0.1131997
H           0.5774826    -3.0407625     0.8577813
C          -1.3334790    -3.4636162    -0.0097996
H          -1.5066481    -4.3186252     0.6386106
