31
190_C13H13N3O2_0-2-3-12 (-165,) energy =    -817.9343800
N           1.6184749    -0.9857172     0.2778008
H           1.6501588     0.0183667     0.3939543
C           2.8059618    -1.6832546     0.1772515
N           3.9124739    -0.8464850     0.2973741
H           3.7734156     0.1475220     0.4350801
O           2.8878411    -2.8923393     0.0009360
C           7.9030323    -1.3979493    -0.6270242
H           8.9615304    -1.4598648    -0.8582599
C           7.0857767    -2.5309163    -0.6203648
H           7.4991758    -3.5099131    -0.8483062
C           5.7343362    -2.4135405    -0.3156810
H           5.0669634    -3.2630945    -0.2935044
C           5.2457899    -1.1272302    -0.0322617
N           6.0148239    -0.0285252    -0.0318610
C           7.3119603    -0.1745729    -0.3223735
H           7.9022375     0.7403145    -0.3103836
C          -2.3780516    -2.3052386     0.3234905
H          -3.4198780    -2.6118435     0.3390584
C          -2.0577145    -0.9498998     0.4641084
H          -2.8479530    -0.2181176     0.5879214
C          -0.7251272    -0.5500182     0.4452382
O          -0.2929838     0.7503365     0.5753789
C          -1.2656503     1.7715029     0.7327323
H          -1.9382470     1.8188242    -0.1331173
H          -0.7099940     2.7076989     0.8116273
H          -1.8580277     1.6216508     1.6443247
C           0.3103294    -1.5024672     0.2842743
C          -0.0234161    -2.8516167     0.1427992
H           0.7700114    -3.5745037     0.0169921
C          -1.3652080    -3.2445566     0.1647012
H          -1.6080562    -4.2974240     0.0541945
31
190_C13H13N3O2_0-2-3-12 (-150,) energy =    -817.9329427
N           1.6358971    -1.0279490     0.3753794
H           1.6829287    -0.0220189     0.4672645
C           2.8099229    -1.7528552     0.3703807
N           3.9278554    -0.9458802     0.5945757
H           3.7822542     0.0381749     0.7899890
O           2.8806971    -2.9599798     0.1798016
C           7.8101295    -1.3207909    -0.7793288
H           8.8389893    -1.3388971    -1.1240998
C           7.0212376    -2.4738718    -0.7632874
H           7.4282149    -3.4245172    -1.0977990
C           5.7091764    -2.4125883    -0.3078957
H           5.0661682    -3.2804689    -0.2655393
C           5.2274841    -1.1600535     0.1065554
N           5.9692498    -0.0437856     0.1020201
C           7.2317662    -0.1365173    -0.3304738
H           7.8026364     0.7905438    -0.3167721
C          -2.3831272    -2.2715066     0.2541114
H          -3.4302956    -2.5582879     0.2250618
C          -2.0442187    -0.9199768     0.3873987
H          -2.8254120    -0.1719988     0.4618787
C          -0.7047887    -0.5446888     0.4256088
O          -0.2538180     0.7490315     0.5555349
C          -1.2123416     1.7916311     0.6451247
H          -1.8400802     1.8348750    -0.2539604
H          -0.6424069     2.7182525     0.7342703
H          -1.8519897     1.6710540     1.5286802
C           0.3179553    -1.5190031     0.3292887
C          -0.0339902    -2.8638027     0.1924409
H           0.7509328    -3.6024665     0.1123456
C          -1.3824362    -3.2322240     0.1584205
H          -1.6400139    -4.2820797     0.0528835
31
190_C13H13N3O2_0-2-3-12 (-135,) energy =    -817.9304012
N           1.6858672    -1.0989953     0.4858315
H           1.7623360    -0.0926201     0.5472852
C           2.8328294    -1.8578246     0.5752099
N           3.9653201    -1.0837564     0.8749945
H           3.8062129    -0.1169141     1.1383458
O           2.8856336    -3.0653894     0.3873528
C           7.6839819    -1.2054784    -0.9351268
H           8.6683800    -1.1610732    -1.3897887
C           6.9369628    -2.3866126    -0.9174422
H           7.3332570    -3.2961495    -1.3611972
C           5.6836683    -2.4052159    -0.3170128
H           5.0771011    -3.2990115    -0.2619499
C           5.2127495    -1.2022973     0.2339846
N           5.9143071    -0.0615944     0.2305796
C           7.1247896    -0.0778614    -0.3405423
H           7.6665509     0.8663645    -0.3205444
C          -2.3568625    -2.2295335     0.1795245
H          -3.4090062    -2.4875139     0.1013004
C          -1.9861664    -0.8852474     0.3002137
H          -2.7481721    -0.1143195     0.3164949
C          -0.6399898    -0.5467812     0.4012996
O          -0.1587901     0.7360624     0.5260892
C          -1.0899030     1.8070490     0.5420249
H          -1.6679602     1.8469830    -0.3899001
H          -0.4984669     2.7190050     0.6412461
H          -1.7782231     1.7247782     1.3927676
C           0.3564991    -1.5518818     0.3807964
C          -0.0263896    -2.8889850     0.2542759
H           0.7401742    -3.6506540     0.2292417
C          -1.3813997    -3.2203285     0.1579780
H          -1.6640045    -4.2645952     0.0617489
31
190_C13H13N3O2_0-2-3-12 (-120,) energy =    -817.9268704
N           1.7393295    -1.1892258     0.6088302
H           1.8538040    -0.1851153     0.6433497
C           2.8472023    -1.9831735     0.7983516
N           3.9997758    -1.2386628     1.1401020
H           3.8308199    -0.2943214     1.4736140
O           2.8730386    -3.1947539     0.6425664
C           7.4949452    -1.0670251    -1.0715939
H           8.4198619    -0.9505782    -1.6271453
C           6.7951348    -2.2774261    -1.0586038
H           7.1700287    -3.1370672    -1.6078556
C           5.6198192    -2.3880295    -0.3261573
H           5.0555991    -3.3097669    -0.2661550
C           5.1728768    -1.2460728     0.3586464
N           5.8290629    -0.0797904     0.3609750
C           6.9690272    -0.0074607    -0.3384366
H           7.4779290     0.9546278    -0.3089995
C          -2.3182670    -2.1836565     0.0955274
H          -3.3728240    -2.4068899    -0.0378527
C          -1.9066985    -0.8503064     0.2041214
H          -2.6401281    -0.0534315     0.1564414
C          -0.5570699    -0.5563495     0.3759474
O          -0.0371118     0.7110672     0.4971576
C          -0.9272155     1.8147689     0.4308809
H          -1.4477641     1.8498503    -0.5344995
H          -0.3089114     2.7072325     0.5422355
H          -1.6666270     1.7801456     1.2410246
C           0.4007843    -1.5963127     0.4383202
C          -0.0219016    -2.9220981     0.3223678
H           0.7171633    -3.7101092     0.3605106
C          -1.3802635    -3.2085460     0.1555376
H          -1.6950637    -4.2443578     0.0687161
31
190_C13H13N3O2_0-2-3-12 (-105,) energy =    -817.9228306
N           1.8047516    -1.3002259     0.7381138
H           1.9631796    -0.3013182     0.7431048
C           2.8645967    -2.1276771     1.0214673
N           4.0443134    -1.4118517     1.3811412
H           3.8732299    -0.5012705     1.7998305
O           2.8506225    -3.3432454     0.9188438
C           7.2517805    -0.9027444    -1.1890793
H           8.1020023    -0.7038388    -1.8334156
C           6.5971459    -2.1387381    -1.2007244
H           6.9333861    -2.9352314    -1.8593036
C           5.5193352    -2.3547370    -0.3521276
H           4.9977356    -3.3030066    -0.3063971
C           5.1178942    -1.2915369     0.4740888
N           5.7303876    -0.1026176     0.4994503
C           6.7805351     0.0715807    -0.3146362
H           7.2585951     1.0483890    -0.2617402
C          -2.2545343    -2.1498790     0.0200148
H          -3.3080483    -2.3359367    -0.1676501
C          -1.7954264    -0.8307160     0.1091630
H          -2.4915816    -0.0079548    -0.0075210
C          -0.4468533    -0.5839419     0.3505104
O           0.1174360     0.6646276     0.4608542
C          -0.7190880     1.8005060     0.3016731
H          -1.1791005     1.8203417    -0.6943717
H          -0.0705690     2.6703865     0.4192890
H          -1.5061596     1.8265136     1.0659073
C           0.4612898    -1.6584751     0.5024378
C          -0.0078565    -2.9698428     0.4050560
H           0.6950350    -3.7841692     0.5129130
C          -1.3650203    -3.2086002     0.1682581
H          -1.7170734    -4.2334934     0.0968560
31
190_C13H13N3O2_0-2-3-12 (-90,) energy =    -817.9232091
N           1.8484586    -1.3642184     1.0665606
H           2.0375943    -0.3734236     0.9894125
C           2.8761366    -2.1475077     1.5138753
N           4.0727538    -1.3710329     1.7127443
H           4.5746660    -1.7401306     2.5179912
O           2.8039365    -3.3287046     1.8048009
C           6.9555498    -0.7835028    -1.2146438
H           7.7604095    -0.6244062    -1.9246961
C           5.6187983    -0.8275748    -1.6189175
H           5.3525556    -0.7023628    -2.6652063
C           4.6210862    -1.0315337    -0.6740226
H           3.5764060    -1.0668746    -0.9628869
C           5.0061251    -1.1989208     0.6682520
N           6.2829287    -1.1649063     1.0687532
C           7.2239740    -0.9569550     0.1404151
H           8.2483057    -0.9351399     0.5089921
C          -2.0837112    -2.3232337    -0.0752617
H          -3.1046860    -2.5381524    -0.3771660
C          -1.5973533    -1.0156879    -0.1880426
H          -2.2386324    -0.2320767    -0.5751849
C          -0.2896954    -0.7300667     0.1955452
O           0.2987296     0.5090813     0.1263111
C          -0.4797468     1.6011309    -0.3395388
H          -0.8116128     1.4423679    -1.3734673
H           0.1733741     2.4744833    -0.2985431
H          -1.3548549     1.7690122     0.3008613
C           0.5451542    -1.7541419     0.7019059
C           0.0472070    -3.0538663     0.8131093
H           0.6921115    -3.8268633     1.2081111
C          -1.2653867    -3.3326138     0.4208020
H          -1.6410841    -4.3474998     0.5114575
31
190_C13H13N3O2_0-2-3-12 (-75,) energy =    -817.9255444
N           1.8677280    -1.4808925     1.1009101
H           2.1026142    -0.5029674     0.9933349
C           2.8493953    -2.3084469     1.5798106
N           4.0940467    -1.6307218     1.7447949
H           4.6445453    -2.1059751     2.4555451
O           2.6947023    -3.4645850     1.9369898
C           6.7990542    -0.5219838    -1.2017683
H           7.5642960    -0.2368186    -1.9161351
C           5.4449699    -0.5370286    -1.5427276
H           5.1237420    -0.2622994    -2.5440295
C           4.4975622    -0.9072950    -0.5954010
H           3.4433291    -0.9272427    -0.8450100
C           4.9515116    -1.2657867     0.6867313
N           6.2480618    -1.2609919     1.0249091
C           7.1379865    -0.8942913     0.0967213
H           8.1790030    -0.9060634     0.4157574
C          -2.1060912    -2.2631054    -0.0345365
H          -3.1357823    -2.4323284    -0.3358551
C          -1.5318101    -1.0022302    -0.2334971
H          -2.1150496    -0.2089750    -0.6871130
C          -0.2120278    -0.7770411     0.1477068
O           0.4614966     0.4114088    -0.0064071
C          -0.2416636     1.5200491    -0.5467384
H          -0.5824633     1.3164597    -1.5698327
H           0.4683072     2.3488242    -0.5595404
H          -1.1043047     1.7873055     0.0765937
C           0.5470198    -1.8124399     0.7424323
C          -0.0384600    -3.0648290     0.9389762
H           0.5490800    -3.8469880     1.3996410
C          -1.3618135    -3.2849753     0.5453451
H          -1.8049515    -4.2638978     0.7027925
31
190_C13H13N3O2_0-2-3-12 (-60,) energy =    -817.9274645
N           1.9221394    -1.5977622     1.0669151
H           2.1969492    -0.6361684     0.9169273
C           2.8674647    -2.4554930     1.5713110
N           4.1526399    -1.8725104     1.6759866
H           4.7253655    -2.4007959     2.3271739
O           2.6497023    -3.5797915     1.9954966
C           6.7317671    -0.2825785    -1.1576953
H           7.4689043     0.1244791    -1.8418198
C           5.3774040    -0.3446749    -1.4885438
H           5.0273873     0.0124603    -2.4535306
C           4.4643944    -0.8731797    -0.5822997
H           3.4139570    -0.9398818    -0.8366662
C           4.9535683    -1.3339723     0.6537679
N           6.2545494    -1.2882626     0.9787216
C           7.1095010    -0.7747191     0.0897160
H           8.1539679    -0.7619919     0.3974461
C          -2.1211759    -2.2060192     0.0769632
H          -3.1669991    -2.3305962    -0.1884652
C          -1.4799039    -0.9947374    -0.2073866
H          -2.0279613    -0.1942601    -0.6912347
C          -0.1391327    -0.8290251     0.1275267
O           0.5982273     0.3072317    -0.1121237
C          -0.0570666     1.4261680    -0.6901471
H          -0.4400908     1.1911100    -1.6913309
H           0.6979499     2.2106070    -0.7660144
H          -0.8837664     1.7743453    -0.0581455
C           0.5753894    -1.8724942     0.7620725
C          -0.0765485    -3.0749284     1.0436427
H           0.4760972    -3.8643805     1.5339034
C          -1.4208898    -3.2364922     0.6949973
H          -1.9155680    -4.1771318     0.9185636
31
190_C13H13N3O2_0-2-3-12 (-45,) energy =    -817.9286985
N           1.9475057    -1.7120387     0.9902006
H           2.2561674    -0.7694957     0.7931344
C           2.8603367    -2.5867844     1.5284294
N           4.1763422    -2.0923789     1.5685776
H           4.7540945    -2.6324925     2.2032554
O           2.5925360    -3.6735618     2.0196799
C           6.6829258    -0.1045045    -1.0673634
H           7.4023809     0.4066956    -1.6983186
C           5.3465035    -0.2455529    -1.4417307
H           4.9935405     0.1496697    -2.3906534
C           4.4553275    -0.9085643    -0.6040133
H           3.4244827    -1.0484269    -0.9036755
C           4.9462726    -1.4137855     0.6144333
N           6.2341814    -1.2974655     0.9769553
C           7.0682933    -0.6614561     0.1506654
H           8.1022558    -0.5978282     0.4863622
C          -2.1607518    -2.1497693     0.1919257
H          -3.2216338    -2.2303563    -0.0265895
C          -1.4722547    -0.9844531    -0.1648448
H          -1.9993072    -0.1752667    -0.6575008
C          -0.1121900    -0.8756506     0.1095882
O           0.6698799     0.2122889    -0.2038354
C           0.0462058     1.3421359    -0.7950599
H          -0.3902912     1.0924175    -1.7705115
H           0.8347641     2.0844971    -0.9304005
H          -0.7348014     1.7533126    -0.1430762
C           0.5764283    -1.9296375     0.7556648
C          -0.1226586    -3.0857760     1.1093872
H           0.4096338    -3.8835578     1.6082559
C          -1.4868855    -3.1907526     0.8214143
H          -2.0176455    -4.0959950     1.1013756
31
190_C13H13N3O2_0-2-3-12 (-30,) energy =    -817.9293550
N           1.9597634    -1.8084880     0.8906576
H           2.2970019    -0.8878378     0.6435960
C           2.8485589    -2.6943452     1.4526176
N           4.1874258    -2.2813225     1.4261756
H           4.7626333    -2.8134939     2.0683432
O           2.5458151    -3.7454578     1.9997343
C           6.6273548     0.0572906    -0.9684654
H           7.3277944     0.6609092    -1.5359745
C           5.3226584    -0.1632275    -1.4096722
H           4.9775220     0.2582764    -2.3500941
C           4.4558431    -0.9456938    -0.6531454
H           3.4569652    -1.1584691    -1.0128018
C           4.9347990    -1.4803390     0.5579437
N           6.1962205    -1.2919030     0.9805962
C           7.0093140    -0.5467878     0.2283909
H           8.0227144    -0.4290748     0.6091086
C          -2.1986694    -2.0773726     0.2994030
H          -3.2712405    -2.1143773     0.1322817
C          -1.4748450    -0.9580800    -0.1278032
H          -1.9864941    -0.1406823    -0.6231694
C          -0.0998930    -0.9052582     0.0806119
O           0.7152637     0.1343811    -0.3050074
C           0.1163115     1.2742556    -0.9020023
H          -0.3771750     1.0169260    -1.8478909
H           0.9304746     1.9745602    -1.0970152
H          -0.6132245     1.7408144    -0.2279981
C           0.5701540    -1.9692788     0.7301630
C          -0.1641535    -3.0794020     1.1535571
H           0.3534303    -3.8854689     1.6542818
C          -1.5439416    -3.1283571     0.9323049
H          -2.1015782    -3.9983030     1.2667422
31
190_C13H13N3O2_0-2-3-12 (-15,) energy =    -817.9295847
N           1.9795138    -1.8915382     0.7994612
H           2.3410643    -0.9945856     0.5041570
C           2.8503058    -2.7833843     1.3804049
N           4.2059882    -2.4469459     1.2823359
H           4.7743750    -2.9572758     1.9475040
O           2.5232641    -3.7979527     1.9804975
C           6.5787057     0.1880865    -0.8564723
H           7.2596272     0.8679430    -1.3576946
C           5.3141872    -0.0969670    -1.3715621
H           4.9840510     0.3484972    -2.3062709
C           4.4737445    -0.9785807    -0.6989326
H           3.5134547    -1.2496229    -1.1203939
C           4.9328980    -1.5400282     0.5078134
N           6.1583762    -1.2908128     0.9990442
C           6.9502673    -0.4543408     0.3237478
H           7.9360919    -0.2903206     0.7561526
C          -2.2111736    -1.9920575     0.4127911
H          -3.2910608    -1.9863251     0.2964436
C          -1.4605328    -0.9193356    -0.0821521
H          -1.9592176    -0.0947552    -0.5788663
C          -0.0763285    -0.9218239     0.0612930
O           0.7627690     0.0702287    -0.3926094
C           0.1846693     1.2187330    -0.9931175
H          -0.3629183     0.9585750    -1.9079880
H           1.0172694     1.8782164    -1.2446165
H          -0.4924424     1.7336856    -0.2998720
C           0.5777688    -1.9951150     0.7120430
C          -0.1831959    -3.0585359     1.2029227
H           0.3220792    -3.8721641     1.7038085
C          -1.5728494    -3.0518957     1.0476028
H          -2.1508998    -3.8859989     1.4346082
31
190_C13H13N3O2_0-2-3-12 (0,) energy =    -817.9293986
N           1.9873782    -1.9753757     0.7072088
H           2.3649859    -1.1065001     0.3540433
C           2.8477624    -2.8642485     1.3067902
N           4.2136801    -2.6009886     1.1283843
H           4.7746509    -3.0964791     1.8115569
O           2.5089257    -3.8393111     1.9632236
C           6.5205116     0.2942032    -0.7299935
H           7.1806814     1.0414443    -1.1577525
C           5.3014333    -0.0338119    -1.3232289
H           4.9892560     0.4442701    -2.2478882
C           4.4892857    -1.0035619    -0.7433433
H           3.5724474    -1.3151626    -1.2299105
C           4.9236233    -1.6026619     0.4541171
N           6.1080652    -1.3136818     1.0172772
C           6.8780524    -0.3950710     0.4280548
H           7.8324180    -0.2007073     0.9148744
C          -2.2188457    -1.9244067     0.5292763
H          -3.3022009    -1.8807640     0.4646563
C          -1.4542691    -0.8954614    -0.0326742
H          -1.9463139    -0.0666842    -0.5289997
C          -0.0657004    -0.9463723     0.0446937
O           0.7861564     0.0005432    -0.4772958
C           0.2218584     1.1523243    -1.0841647
H          -0.3776169     0.8873704    -1.9645068
H           1.0646535     1.7731304    -1.3936010
H          -0.4025655     1.7115811    -0.3759167
C           0.5798704    -2.0255092     0.6943802
C          -0.1950133    -3.0454301     1.2513720
H           0.3040962    -3.8638295     1.7505333
C          -1.5894732    -2.9897199     1.1637280
H          -2.1779886    -3.7902950     1.6023657
31
190_C13H13N3O2_0-2-3-12 (15,) energy =    -817.9295846
N           1.8387130    -1.7157512    -0.6874637
H           2.2679958    -0.9035871    -0.2649088
C           2.5677746    -2.4300944    -1.6090650
N           3.9252829    -2.0959385    -1.6877820
H           4.3499197    -2.4263378    -2.5459593
O           2.1136338    -3.2855315    -2.3563249
C           6.7086844     0.0249207     0.5263052
H           7.4850167     0.5853034     1.0365609
C           5.5549965    -0.3988926     1.1858273
H           5.4127428    -0.1886769     2.2425592
C           4.5858862    -1.1194151     0.4946790
H           3.7141546    -1.5013476     1.0118456
C           4.8021967    -1.3768026    -0.8725218
N           5.9211475    -0.9942103    -1.5103218
C           6.8420674    -0.3192711    -0.8181032
H           7.7345337    -0.0383578    -1.3751664
C          -2.2098712    -1.9941334     0.4318741
H          -3.2493677    -2.0389492     0.7435855
C          -1.3576006    -1.0486231     1.0139453
H          -1.7379667    -0.3720999     1.7709021
C          -0.0240173    -0.9877739     0.6209424
O           0.9058130    -0.1093127     1.1288782
C           0.4735566     0.8565688     2.0744460
H          -0.3084521     1.5028068     1.6560149
H           1.3524159     1.4581415     2.3134218
H           0.0986119     0.3802775     2.9893697
C           0.4752375    -1.8672541    -0.3692748
C          -0.3862229    -2.8048816    -0.9434136
H           0.0000867    -3.4696440    -1.7030416
C          -1.7228809    -2.8645523    -0.5371017
H          -2.3804553    -3.5991181    -0.9927901
31
190_C13H13N3O2_0-2-3-12 (30,) energy =    -817.9293550
N           1.8043086    -1.6143273    -0.7517535
H           2.2013210    -0.7685108    -0.3653054
C           2.5546509    -2.3268645    -1.6571682
N           3.8840898    -1.9020344    -1.7835247
H           4.3192240    -2.2588428    -2.6260181
O           2.1333298    -3.2295344    -2.3667477
C           6.7742663    -0.1270961     0.5941128
H           7.5803611     0.3442517     1.1464532
C           5.5688677    -0.4719304     1.2053639
H           5.4124139    -0.2866408     2.2647827
C           4.5605284    -1.0772177     0.4618367
H           3.6407499    -1.3890179     0.9405546
C           4.7960750    -1.3071333    -0.9069723
N           5.9616754    -0.9987326    -1.4999236
C           6.9156197    -0.4299522    -0.7592406
H           7.8437115    -0.2054367    -1.2827110
C          -2.1785190    -2.1030508     0.5181567
H          -3.2023949    -2.2010181     0.8671381
C          -1.3640920    -1.0971794     1.0512367
H          -1.7576391    -0.4276348     1.8076373
C          -0.0503724    -0.9676994     0.6106744
O           0.8443886    -0.0277145     1.0687819
C           0.3908354     0.9301365     2.0128535
H          -0.4401815     1.5237309     1.6113090
H           1.2420622     1.5840426     2.2106858
H           0.0748364     0.4506190     2.9480861
C           0.4649939    -1.8380801    -0.3792008
C          -0.3588295    -2.8361412    -0.9045874
H           0.0398094    -3.4932952    -1.6645856
C          -1.6748489    -2.9649298    -0.4499770
H          -2.3034321    -3.7460599    -0.8675072
31
190_C13H13N3O2_0-2-3-12 (45,) energy =    -817.9286985
N           1.7759979    -1.4977907    -0.8223084
H           2.1361822    -0.6197474    -0.4733071
C           2.5545864    -2.2044744    -1.7069150
N           3.8510501    -1.6856027    -1.8738687
H           4.2898869    -2.0518061    -2.7115163
O           2.1771393    -3.1539847    -2.3778051
C           6.8436091    -0.3061036     0.6409602
H           7.6780814     0.0611113     1.2290547
C           5.5964447    -0.5589014     1.2125758
H           5.4333026    -0.4013160     2.2754914
C           4.5517884    -1.0297764     0.4235770
H           3.5911252    -1.2575057     0.8677234
C           4.7983905    -1.2291027    -0.9476794
N           5.9995327    -1.0041521    -1.5047401
C           6.9854218    -0.5581476    -0.7223667
H           7.9408392    -0.3961832    -1.2191205
C          -2.1230201    -2.1974640     0.5971114
H          -3.1268798    -2.3494360     0.9829671
C          -1.3552948    -1.1313313     1.0800556
H          -1.7646513    -0.4694823     1.8348144
C          -0.0671612    -0.9324814     0.5921020
O           0.7828235     0.0704355     0.9985049
C           0.3036950     1.0193253     1.9393100
H          -0.5750393     1.5528438     1.5555056
H           1.1196714     1.7273621     2.0945779
H           0.0493092     0.5416233     2.8940265
C           0.4673125    -1.7934981    -0.3955660
C          -0.3100564    -2.8516381    -0.8715247
H           0.1035503    -3.5008451    -1.6305511
C          -1.5996983    -3.0499846    -0.3689846
H          -2.1925949    -3.8774401    -0.7475868
31
190_C13H13N3O2_0-2-3-12 (60,) energy =    -817.9274645
N           1.7394169    -1.3694687    -0.8645192
H           2.0580639    -0.4627571    -0.5498482
C           2.5565475    -2.0667073    -1.7188687
N           3.8127431    -1.4474438    -1.9213193
H           4.2438560    -1.7984440    -2.7710756
O           2.2398248    -3.0671152    -2.3435863
C           6.9043901    -0.4991209     0.6771298
H           7.7637766    -0.2451034     1.2887045
C           5.6332839    -0.6654442     1.2287109
H           5.4751658    -0.5485411     2.2976305
C           4.5574628    -0.9901298     0.4093386
H           3.5707822    -1.1366469     0.8307227
C           4.8000475    -1.1422248    -0.9681606
N           6.0194312    -0.9943654    -1.5080469
C           7.0346983    -0.6815166    -0.6978873
H           8.0044914    -0.5753073    -1.1816143
C          -2.0641435    -2.2778876     0.6866356
H          -3.0455105    -2.4831619     1.1043663
C          -1.3551858    -1.1513456     1.1197288
H          -1.7870033    -0.4963977     1.8679376
C          -0.0959273    -0.8835824     0.5907056
O           0.6975660     0.1823992     0.9460414
C           0.1846923     1.1230334     1.8775497
H          -0.7366258     1.5896596     1.5067140
H           0.9576543     1.8850057     1.9919096
H          -0.0120850     0.6548125     2.8503686
C           0.4663611    -1.7364617    -0.3882970
C          -0.2523711    -2.8552720    -0.8147245
H           0.1830109    -3.4979153    -1.5673597
C          -1.5125138    -3.1222486    -0.2709656
H          -2.0603193    -3.9963749    -0.6105291
31
190_C13H13N3O2_0-2-3-12 (75,) energy =    -817.9255439
N           1.6844429    -1.2496020    -0.8581269
H           1.9558418    -0.3181543    -0.5720809
C           2.5424986    -1.9208879    -1.6893680
N           3.7498128    -1.1960859    -1.9189502
H           4.1490427    -1.4806591    -2.8098490
O           2.2995052    -2.9653345    -2.2709352
C           6.9779907    -0.7437485     0.6506715
H           7.8686437    -0.6157865     1.2569597
C           5.7104734    -0.8672291     1.2236083
H           5.5874874    -0.8397370     2.3031264
C           4.5955459    -1.0277586     0.4091551
H           3.6053124    -1.1284053     0.8374253
C           4.7959723    -1.0684368    -0.9824369
N           6.0073132    -0.9568593    -1.5443998
C           7.0621978    -0.7965352    -0.7384209
H           8.0254902    -0.7110943    -1.2388613
C          -2.0296965    -2.3601972     0.7747313
H          -2.9900362    -2.6176353     1.2119871
C          -1.4024560    -1.1663115     1.1494113
H          -1.8764218    -0.5118994     1.8720941
C          -0.1705004    -0.8301218     0.5951531
O           0.5443899     0.3058620     0.8922086
C          -0.0238438     1.2441093     1.7934681
H          -0.9804041     1.6288831     1.4178836
H           0.6938472     2.0630431     1.8666474
H          -0.1752026     0.8024688     2.7866227
C           0.4450524    -1.6840402    -0.3502781
C          -0.1923293    -2.8705793    -0.7187496
H           0.2840675    -3.5128903    -1.4465334
C          -1.4254247    -3.2044586    -0.1507059
H          -1.9101079    -4.1306626    -0.4450764
31
190_C13H13N3O2_0-2-3-12 (90,) energy =    -817.9232099
N           1.6723953    -1.1424783    -0.7963005
H           1.8937980    -0.1923796    -0.5285638
C           2.5828255    -1.7781615    -1.5942282
N           3.7395782    -0.9514323    -1.8254307
H           4.0762580    -1.1136258    -2.7724720
O           2.4327400    -2.8618396    -2.1309974
C           7.1260099    -0.9963580     0.5735171
H           8.0518089    -0.9889394     1.1393228
C           5.8859859    -1.1590894     1.1967202
H           5.8213996    -1.2834534     2.2745081
C           4.7261943    -1.1598839     0.4320781
H           3.7518747    -1.2815562     0.8924730
C           4.8530167    -1.0059300    -0.9600974
N           6.0345553    -0.8550313    -1.5709261
C           7.1358657    -0.8475437    -0.8107630
H           8.0747416    -0.7208008    -1.3475252
C          -2.0017384    -2.4268860     0.7975046
H          -2.9538392    -2.7294208     1.2238045
C          -1.4752293    -1.1701356     1.1174435
H          -2.0179284    -0.5120021     1.7863804
C          -0.2549637    -0.7743681     0.5762211
O           0.3618590     0.4282707     0.8203619
C          -0.2944884     1.3652017     1.6611820
H          -1.2689547     1.6565398     1.2492987
H           0.3579153     2.2390177     1.7036896
H          -0.4333246     0.9643584     2.6733080
C           0.4506103    -1.6348778    -0.2977633
C          -0.0866630    -2.8847117    -0.6123440
H           0.4577070    -3.5313401    -1.2868819
C          -1.3100423    -3.2757093    -0.0601601
H          -1.7172609    -4.2504551    -0.3119374
31
190_C13H13N3O2_0-2-3-12 (105,) energy =    -817.9228306
N           1.6912183    -1.1585510    -0.4600436
H           1.8677350    -0.1822885    -0.2633344
C           2.6623138    -1.8748892    -1.1173634
N           3.7707392    -1.0698126    -1.5132771
H           3.5452321    -0.0911016    -1.6713897
O           2.6410304    -3.0813030    -1.2974913
C           7.4076317    -1.0983010     0.4679516
H           8.3662575    -1.0351063     0.9725831
C           6.7396097    -2.3175329     0.3143837
H           7.1741404    -3.2370727     0.6975483
C           5.5193014    -2.3551400    -0.3473422
H           4.9776819    -3.2783455    -0.5138132
C           4.9955906    -1.1388726    -0.8170262
N           5.6186486     0.0368186    -0.6796598
C           6.8044981     0.0411332    -0.0554529
H           7.2857614     1.0139292     0.0314217
C          -2.1834479    -2.2393386     0.7786039
H          -3.1880573    -2.4866223     1.1092672
C          -1.7200337    -0.9255682     0.9134137
H          -2.3646188    -0.1673733     1.3433368
C          -0.4340816    -0.6003956     0.4910563
O           0.1272344     0.6518946     0.5699091
C          -0.6406133     1.7017925     1.1386404
H          -1.5544070     1.8864433     0.5597646
H          -0.0061267     2.5892397     1.1075445
H          -0.9084329     1.4810192     2.1796217
C           0.4068134    -1.5907354    -0.0697924
C          -0.0647762    -2.8990431    -0.1930841
H           0.5882406    -3.6509248    -0.6138693
C          -1.3598340    -3.2155546     0.2283634
H          -1.7149182    -4.2366514     0.1248147
31
190_C13H13N3O2_0-2-3-12 (120,) energy =    -817.9268704
N           1.6531980    -1.0818598    -0.2988450
H           1.7811825    -0.0946726    -0.1210377
C           2.6895300    -1.7862292    -0.8676458
N           3.7752198    -0.9579839    -1.2347986
H           3.5682558     0.0339404    -1.3041438
O           2.7172597    -3.0001741    -1.0034103
C           7.6213139    -1.2256615     0.2729104
H           8.6351596    -1.2205412     0.6598970
C           6.9048961    -2.4152890     0.1101080
H           7.3558465    -3.3701583     0.3671564
C           5.6125027    -2.3793270    -0.3983248
H           5.0269408    -3.2743584    -0.5643973
C           5.0719054    -1.1201089    -0.7063880
N           5.7416706     0.0291913    -0.5603595
C           6.9923976    -0.0371423    -0.0857995
H           7.5079882     0.9165858     0.0143535
C          -2.2607379    -2.2561464     0.7104143
H          -3.2771957    -2.5270776     0.9808275
C          -1.8473106    -0.9251233     0.8387075
H          -2.5418096    -0.1769844     1.2036202
C          -0.5464689    -0.5700887     0.4934645
O          -0.0303024     0.7020757     0.5744787
C          -0.8686339     1.7409607     1.0569228
H          -1.7453896     1.8782841     0.4113977
H          -0.2621877     2.6482694     1.0426052
H          -1.2012580     1.5407711     2.0832980
C           0.3605402    -1.5463982     0.0169656
C          -0.0622877    -2.8720047    -0.1005016
H           0.6397007    -3.6136018    -0.4552956
C          -1.3724687    -3.2187712     0.2433154
H          -1.6883449    -4.2532360     0.1450919
31
190_C13H13N3O2_0-2-3-12 (135,) energy =    -817.9304012
N           1.6253251    -1.0237026    -0.1506554
H           1.7110724    -0.0289225     0.0089525
C           2.7193161    -1.7161768    -0.6228813
N           3.7936565    -0.8693090    -0.9394106
H           3.6097933     0.1285118    -0.9383684
O           2.7795623    -2.9330340    -0.7320561
C           7.7788798    -1.3246669     0.0756978
H           8.8309886    -1.3650086     0.3386966
C           7.0158739    -2.4857856    -0.0761334
H           7.4673250    -3.4643534     0.0646556
C           5.6732194    -2.3925434    -0.4228219
H           5.0475860    -3.2624692    -0.5699204
C           5.1350475    -1.1054570    -0.5845480
N           5.8498684     0.0186401    -0.4473082
C           7.1442893    -0.1026875    -0.1287709
H           7.6934977     0.8322127    -0.0297791
C          -2.3151778    -2.2821697     0.6267025
H          -3.3402031    -2.5740822     0.8359608
C          -1.9438733    -0.9386149     0.7535061
H          -2.6787883    -0.2015382     1.0566000
C          -0.6323943    -0.5567398     0.4867493
O          -0.1546285     0.7304092     0.5750627
C          -1.0491340     1.7555654     0.9789835
H          -1.8842172     1.8570340     0.2742453
H          -0.4664252     2.6784469     0.9857186
H          -1.4443301     1.5665655     1.9851284
C           0.3286031    -1.5174583     0.0903400
C          -0.0534479    -2.8556394    -0.0269867
H           0.6877607    -3.5856340    -0.3204198
C          -1.3743356    -3.2296725     0.2384727
H          -1.6570540    -4.2738252     0.1413459
31
190_C13H13N3O2_0-2-3-12 (150,) energy =    -817.9329427
N           1.5980853    -0.9812102    -0.0195834
H           1.6492772     0.0195274     0.1162612
C           2.7368272    -1.6618615    -0.3988333
N           3.8115445    -0.8007600    -0.6328011
H           3.6538568     0.1984089    -0.5654258
O           2.8152402    -2.8785225    -0.5086664
C           7.8715353    -1.3981016    -0.1230620
H           8.9456973    -1.4729110     0.0123149
C           7.0682771    -2.5332312    -0.2589281
H           7.5091521    -3.5263340    -0.2338097
C           5.6963750    -2.3970601    -0.4377670
H           5.0378275    -3.2455104    -0.5598968
C           5.1739177    -1.0934682    -0.4558117
N           5.9279458     0.0074831    -0.3307435
C           7.2462520    -0.1550740    -0.1718830
H           7.8248688     0.7623146    -0.0763651
C          -2.3557089    -2.3064137     0.5505776
H          -3.3855379    -2.6148936     0.7053071
C          -2.0178109    -0.9535971     0.6729263
H          -2.7828199    -0.2258385     0.9187126
C          -0.7005668    -0.5505543     0.4759630
O          -0.2532244     0.7477044     0.5674891
C          -1.1888689     1.7616437     0.8996099
H          -1.9830366     1.8345115     0.1457219
H          -0.6251157     2.6959984     0.9233432
H          -1.6388404     1.5823266     1.8843183
C           0.3008892    -1.4982443     0.1541831
C          -0.0490157    -2.8456208     0.0391861
H           0.7208913    -3.5655371    -0.1997814
C          -1.3757434    -3.2412124     0.2354008
H          -1.6322687    -4.2924048     0.1412188
31
190_C13H13N3O2_0-2-3-12 (165,) energy =    -817.9343799
N           1.5999621    -0.9629400     0.0866672
H           1.6315069     0.0412834     0.2016457
C           2.7701461    -1.6387773    -0.1974269
N           3.8534707    -0.7729713    -0.3230249
H           3.7131281     0.2226693    -0.1991077
O           2.8568007    -2.8538142    -0.3233356
C           7.9330842    -1.4360017    -0.3034002
H           9.0144671    -1.5265775    -0.2920384
C           7.1041252    -2.5542906    -0.4209655
H           7.5310408    -3.5502009    -0.5057962
C           5.7225591    -2.3991720    -0.4356432
H           5.0441936    -3.2349424    -0.5301331
C           5.2182705    -1.0931621    -0.3188998
N           5.9977959    -0.0076182    -0.2071016
C           7.3227633    -0.1885359    -0.2025792
H           7.9204980     0.7169945    -0.1113807
C          -2.3641465    -2.3230218     0.4757573
H          -3.3973886    -2.6403626     0.5823233
C          -2.0458072    -0.9651856     0.5952299
H          -2.8291765    -0.2419681     0.7917033
C          -0.7242260    -0.5515408     0.4597056
O          -0.2953064     0.7528312     0.5558679
C          -1.2578459     1.7612824     0.8207543
H          -2.0113626     1.8130552     0.0245761
H          -0.7060435     2.7022882     0.8590067
H          -1.7579534     1.5927527     1.7829452
C           0.3021495    -1.4926318     0.2025319
C          -0.0290703    -2.8449376     0.0877782
H           0.7579944    -3.5598896    -0.1053339
C          -1.3601047    -3.2513315     0.2237098
H          -1.6012776    -4.3062997     0.1310059
31
190_C13H13N3O2_0-2-3-12 (180,) energy =    -817.9348284
N           1.6261485    -0.9320238     0.1791562
H           1.6560302     0.0724682     0.2923076
C           2.8097596    -1.6186790    -0.0094541
N           3.9074577    -0.7648521    -0.0141882
H           3.7734493     0.2302102     0.1181336
O           2.8925485    -2.8317208    -0.1569797
C           7.9619820    -1.4198852    -0.4665180
H           9.0379695    -1.5083758    -0.5765928
C           7.1243938    -2.5365588    -0.5209331
H           7.5388772    -3.5291778    -0.6765644
C           5.7499395    -2.3854170    -0.3757043
H           5.0654566    -3.2206572    -0.4109442
C           5.2615022    -1.0831659    -0.1766155
N           6.0498168     0.0008410    -0.1214458
C           7.3672484    -0.1771245    -0.2645543
H           7.9719603     0.7269638    -0.2136504
C          -2.3553868    -2.2780204     0.4055353
H          -3.3933194    -2.5916250     0.4687837
C          -2.0376006    -0.9209987     0.5353293
H          -2.8261345    -0.1949036     0.6974829
C          -0.7100416    -0.5120734     0.4555020
O          -0.2803701     0.7908644     0.5680225
C          -1.2501398     1.8045854     0.7809250
H          -1.9654989     1.8536116    -0.0498804
H          -0.6969623     2.7438011     0.8386394
H          -1.7953231     1.6447235     1.7198502
C           0.3232320    -1.4570762     0.2437078
C          -0.0079558    -2.8082665     0.1155712
H           0.7836808    -3.5260445    -0.0456366
C          -1.3447880    -3.2100437     0.1975034
H          -1.5854484    -4.2643267     0.0959953
