31
190_C13H13N3O2_18-20-21-22 (-165,) energy =    -817.9193795
N           1.3940063    -1.0879655     0.9994144
H           1.6561499    -0.9958014     1.9733636
C           2.4117260    -1.3079872     0.0817346
N           3.6737394    -1.0835645     0.6140465
H           3.7693652    -0.7953531     1.5803344
O           2.2012305    -1.6208585    -1.0819980
C           7.4593833    -1.1791139    -1.0401303
H           8.4834862    -1.1815402    -1.3991177
C           6.3889452    -1.5115502    -1.8738452
H           6.5625789    -1.7829543    -2.9118163
C           5.0895805    -1.4981127    -1.3788411
H           4.2315690    -1.7479803    -1.9865090
C           4.9170491    -1.1404647    -0.0316394
N           5.9311326    -0.8185285     0.7842096
C           7.1692973    -0.8413457     0.2792047
H           7.9649504    -0.5740215     0.9726775
C          -2.5644850    -2.5474114     0.6014173
H          -3.5853125    -2.9141976     0.5363274
C          -2.2786998    -1.2492300     0.2061773
H          -3.0545144    -0.5907602    -0.1714410
C          -0.9712572    -0.7313597     0.2693762
O          -0.8836871     0.5616730    -0.1409344
C           0.3576618     1.1912055    -0.4577899
H           0.9253665     1.4454200     0.4421512
H           0.0802930     2.1098723    -0.9806644
H           0.9633815     0.5618511    -1.1155737
C           0.0553084    -1.5568894     0.7722292
C          -0.2524178    -2.8732416     1.1494847
H           0.5592451    -3.4946757     1.5193446
C          -1.5432947    -3.3791327     1.0721195
H          -1.7515824    -4.4004515     1.3757314
31
190_C13H13N3O2_18-20-21-22 (-150,) energy =    -817.9201281
N           1.3941411    -1.1433326     1.0062812
H           1.6281248    -0.8666801     1.9512378
C           2.4179711    -1.3796762     0.1060189
N           3.6711533    -1.0767640     0.6221924
H           3.7590427    -0.7557850     1.5787786
O           2.2214670    -1.7794061    -1.0338090
C           7.4628048    -1.1651227    -1.0182450
H           8.4876584    -1.1606935    -1.3750657
C           6.4029566    -1.5642571    -1.8361278
H           6.5859565    -1.8827370    -2.8590280
C           5.1022983    -1.5577009    -1.3446118
H           4.2523503    -1.8596639    -1.9398326
C           4.9171558    -1.1381607    -0.0169153
N           5.9211512    -0.7521086     0.7835611
C           7.1609310    -0.7700566     0.2823670
H           7.9480032    -0.4500971     0.9632726
C          -2.5919470    -2.5095480     0.6379178
H          -3.6221365    -2.8515774     0.5865484
C          -2.2978266    -1.1807847     0.3619123
H          -3.0751391    -0.4745955     0.0876959
C          -0.9764438    -0.7055687     0.4069436
O          -0.8389943     0.6204572     0.1267928
C           0.3534941     1.1234863    -0.4814268
H           1.1077636     1.3851631     0.2670023
H           0.0483020     2.0280521    -1.0142939
H           0.7741866     0.4023393    -1.1884712
C           0.0516919    -1.5919825     0.7850594
C          -0.2618553    -2.9344751     1.0392756
H           0.5505380    -3.6016646     1.3137371
C          -1.5677750    -3.4041447     0.9640595
H          -1.7866838    -4.4478048     1.1682770
31
190_C13H13N3O2_18-20-21-22 (-135,) energy =    -817.9224912
N           1.3739684    -1.0346272     0.6653643
H           1.4882596    -0.2654117     1.3101585
C           2.4940958    -1.5346927     0.0219701
N           3.6542959    -0.8677925     0.3941075
H           3.6161076    -0.1323296     1.0894120
O           2.4602814    -2.4535931    -0.7844322
C           7.6045951    -1.2882966    -0.7428402
H           8.6607164    -1.3358259    -0.9877439
C           6.6733118    -2.1389416    -1.3431155
H           6.9918938    -2.8747211    -2.0768081
C           5.3275382    -2.0496955    -1.0046167
H           4.5733763    -2.6874799    -1.4428897
C           4.9658762    -1.0835657    -0.0515173
N           5.8445316    -0.2579369     0.5351900
C           7.1314789    -0.3680964     0.1890335
H           7.8130045     0.3191502     0.6876406
C          -2.5717754    -2.5062731     0.7459627
H          -3.5886969    -2.8770958     0.8371572
C          -2.3200005    -1.1416660     0.8565359
H          -3.1204159    -0.4267397     1.0199610
C          -1.0224744    -0.6443761     0.7092821
O          -0.8714268     0.7187720     0.8571957
C          -0.0672722     1.4305557    -0.0872348
H           0.9803666     1.5083675     0.2238867
H          -0.4891224     2.4375630    -0.1444012
H          -0.1067597     0.9639669    -1.0777191
C           0.0561833    -1.5411063     0.5660143
C          -0.2085995    -2.9116335     0.4327284
H           0.6218696    -3.5900510     0.2857863
C          -1.5150824    -3.3871189     0.5043034
H          -1.7012636    -4.4521865     0.4008594
31
190_C13H13N3O2_18-20-21-22 (-120,) energy =    -817.9262469
N           1.4263799    -0.9605686     0.4954065
H           1.5032576    -0.1371871     1.0786994
C           2.5840376    -1.5207156    -0.0189921
N           3.7107156    -0.7764806     0.3052659
H           3.6209412     0.0609474     0.8678422
O           2.6107693    -2.5428656    -0.6911306
C           7.7205107    -1.2448780    -0.5762019
H           8.7882130    -1.2970053    -0.7630603
C           6.8403482    -2.2068778    -1.0770614
H           7.2118919    -3.0373217    -1.6716064
C           5.4777935    -2.1080473    -0.8173512
H           4.7617907    -2.8289481    -1.1849104
C           5.0468501    -1.0175280    -0.0443571
N           5.8758602    -0.0838436     0.4445201
C           7.1804517    -0.2062097     0.1778964
H           7.8201238     0.5710911     0.5926138
C          -2.4861727    -2.4804338     0.7952928
H          -3.4904198    -2.8636967     0.9508946
C          -2.2124557    -1.1316086     1.0214459
H          -2.9850649    -0.4402136     1.3438482
C          -0.9349752    -0.6262749     0.7924010
O          -0.6962233     0.7069573     1.0894803
C          -0.2756318     1.5282013    -0.0083587
H           0.6259037     1.1461963    -0.4982967
H          -0.0751771     2.5155275     0.4141531
H          -1.0742874     1.6098105    -0.7563619
C           0.1237701    -1.5004256     0.4624046
C          -0.1603797    -2.8500820     0.2142911
H           0.6447435    -3.5112448    -0.0753832
C          -1.4627180    -3.3258237     0.3661982
H          -1.6662853    -4.3755397     0.1741025
31
190_C13H13N3O2_18-20-21-22 (-105,) energy =    -817.9291889
N           1.4548548    -0.9866107     0.4959282
H           1.5129506    -0.1141533     1.0062448
C           2.6168372    -1.5623779     0.0126690
N           3.7337044    -0.7823542     0.2826562
H           3.6322537     0.0886135     0.7895035
O           2.6570942    -2.6275370    -0.5890745
C           7.7473296    -1.2478453    -0.5822746
H           8.8151176    -1.2961263    -0.7697244
C           6.8802919    -2.2539660    -1.0147233
H           7.2625834    -3.1163163    -1.5545331
C           5.5172609    -2.1586661    -0.7563421
H           4.8112071    -2.9131174    -1.0721820
C           5.0719919    -1.0258989    -0.0553929
N           5.8883829    -0.0496317     0.3672744
C           7.1937737    -0.1698837     0.1038190
H           7.8228585     0.6426438     0.4636253
C          -2.4894761    -2.4418190     0.7241963
H          -3.5073725    -2.8029356     0.8380431
C          -2.1849644    -1.1097346     1.0096930
H          -2.9454497    -0.4111640     1.3457215
C          -0.8852223    -0.6432676     0.8461368
O          -0.5801881     0.6703644     1.1800028
C          -0.4082087     1.5387039     0.0517281
H           0.3783860     1.1803207    -0.6235010
H          -0.1298525     2.5149867     0.4557861
H          -1.3442372     1.6313267    -0.5128575
C           0.1540397    -1.5227278     0.4753082
C          -0.1584547    -2.8556040     0.1776054
H           0.6326771    -3.5251012    -0.1299675
C          -1.4768788    -3.2989852     0.2932663
H          -1.7042425    -4.3357957     0.0613966
31
190_C13H13N3O2_18-20-21-22 (-90,) energy =    -817.9307491
N           1.4945467    -0.9942504     0.4771117
H           1.5403742    -0.0860613     0.9229127
C           2.6598105    -1.5940534     0.0355194
N           3.7715431    -0.7905445     0.2544339
H           3.6628491     0.1100372     0.7048348
O           2.7092100    -2.6974893    -0.4927809
C           7.7895173    -1.2844381    -0.5736354
H           8.8578600    -1.3376936    -0.7565457
C           6.9294550    -2.3214915    -0.9423699
H           7.3180055    -3.2138968    -1.4259588
C           5.5655241    -2.2188293    -0.6919929
H           4.8647254    -2.9964224    -0.9597019
C           5.1117608    -1.0466476    -0.0649574
N           5.9215969    -0.0404441     0.2960554
C           7.2280982    -0.1687867     0.0421975
H           7.8515281     0.6688966     0.3505579
C          -2.4696265    -2.4029052     0.6733420
H          -3.4960852    -2.7467746     0.7603317
C          -2.1448441    -1.0827463     0.9912242
H          -2.8984601    -0.3789988     1.3326434
C          -0.8310867    -0.6448944     0.8711006
O          -0.4847960     0.6562055     1.2178021
C          -0.5839914     1.5879631     0.1336509
H           0.0640667     1.2995097    -0.7041946
H          -0.2671778     2.5564948     0.5280195
H          -1.6175048     1.6611315    -0.2263676
C           0.1949087    -1.5284049     0.4762499
C          -0.1364068    -2.8515756     0.1548493
H           0.6447821    -3.5287730    -0.1607267
C          -1.4642323    -3.2717709     0.2486206
H          -1.7069430    -4.3004514    -0.0031165
31
190_C13H13N3O2_18-20-21-22 (-75,) energy =    -817.9314638
N           1.5391728    -0.9947121     0.4399261
H           1.5777954    -0.0547029     0.8148961
C           2.7075747    -1.6166920     0.0421653
N           3.8150235    -0.7948929     0.2117116
H           3.6999060     0.1318467     0.6036092
O           2.7654356    -2.7527563    -0.4114329
C           7.8391237    -1.3246301    -0.5626527
H           8.9085798    -1.3852386    -0.7365897
C           6.9849305    -2.3872815    -0.8666049
H           7.3793705    -3.3078705    -1.2887173
C           5.6194392    -2.2742050    -0.6299428
H           4.9230080    -3.0706804    -0.8490911
C           5.1576934    -1.0653005    -0.0833818
N           5.9619700    -0.0341740     0.2147968
C           7.2701930    -0.1734829    -0.0239014
H           7.8888404     0.6851963     0.2319439
C          -2.4365364    -2.3739542     0.6214662
H          -3.4676437    -2.7069507     0.6947373
C          -2.1029349    -1.0572387     0.9434301
H          -2.8576146    -0.3513306     1.2784088
C          -0.7822411    -0.6334240     0.8449668
O          -0.4089994     0.6598409     1.1907001
C          -0.7794220     1.6577146     0.2338845
H          -0.3217424     1.4601481    -0.7442653
H          -0.4164463     2.6109104     0.6255114
H          -1.8681579     1.7071181     0.1130796
C           0.2387174    -1.5242456     0.4532260
C          -0.1016118    -2.8462071     0.1346169
H           0.6772158    -3.5297537    -0.1726580
C          -1.4337427    -3.2545180     0.2150660
H          -1.6829796    -4.2816431    -0.0365273
31
190_C13H13N3O2_18-20-21-22 (-60,) energy =    -817.9318929
N           1.5683031    -0.9902043     0.3862923
H           1.5993990    -0.0244776     0.6888963
C           2.7409878    -1.6322911     0.0380279
N           3.8445562    -0.7961019     0.1591024
H           3.7237767     0.1547610     0.4860599
O           2.8076647    -2.7964780    -0.3366258
C           7.8757568    -1.3617394    -0.5503515
H           8.9465983    -1.4298275    -0.7126689
C           7.0274694    -2.4464050    -0.7853581
H           7.4280417    -3.3924662    -1.1400181
C           5.6600567    -2.3226998    -0.5660244
H           4.9680556    -3.1353208    -0.7338984
C           5.1899463    -1.0807029    -0.1076431
N           5.9886071    -0.0281252     0.1235845
C           7.2988992    -0.1784707    -0.0963277
H           7.9127271     0.6983646     0.1034975
C          -2.4104894    -2.3558589     0.5630657
H          -3.4443939    -2.6817208     0.6288659
C          -2.0771888    -1.0345660     0.8672223
H          -2.8395337    -0.3278216     1.1813319
C          -0.7536453    -0.6156849     0.7788830
O          -0.3562616     0.6720077     1.1094630
C          -0.9593632     1.7220643     0.3509865
H          -0.7795421     1.5878474    -0.7232531
H          -0.4946081     2.6505294     0.6905936
H          -2.0395985     1.7797766     0.5279744
C           0.2674748    -1.5179786     0.4106788
C          -0.0735587    -2.8443978     0.1137562
H           0.7066689    -3.5350862    -0.1731699
C          -1.4073906    -3.2484630     0.1869169
H          -1.6573790    -4.2789769    -0.0492909
31
190_C13H13N3O2_18-20-21-22 (-45,) energy =    -817.9326051
N           1.5877882    -0.9873722     0.3290583
H           1.6163971    -0.0042138     0.5677504
C           2.7639125    -1.6459795     0.0274720
N           3.8650713    -0.8012344     0.1081198
H           3.7394942     0.1672623     0.3761622
O           2.8366512    -2.8302080    -0.2767971
C           7.9034244    -1.3975474    -0.5322584
H           8.9757772    -1.4722962    -0.6811510
C           7.0595680    -2.4968065    -0.7080579
H           7.4653452    -3.4615163    -1.0012577
C           5.6900731    -2.3638462    -0.5081555
H           5.0013144    -3.1870194    -0.6322050
C           5.2131141    -1.0976574    -0.1298140
N           6.0075247    -0.0308075     0.0438207
C           7.3199624    -0.1905981    -0.1556502
H           7.9300750     0.6984675    -0.0042671
C          -2.3930810    -2.3446112     0.5079491
H          -3.4289460    -2.6653641     0.5683541
C          -2.0622852    -1.0151275     0.7826529
H          -2.8327648    -0.3038089     1.0629158
C          -0.7372984    -0.5990291     0.6984928
O          -0.3207601     0.6849329     1.0016475
C          -1.1044413     1.7578375     0.4833751
H          -1.3100870     1.6167472    -0.5845978
H          -0.5152335     2.6657802     0.6309110
H          -2.0533895     1.8634489     1.0230161
C           0.2861574    -1.5138626     0.3633760
C          -0.0541082    -2.8456684     0.0976579
H           0.7294451    -3.5424778    -0.1640680
C          -1.3891720    -3.2488255     0.1681520
H          -1.6377661    -4.2847074    -0.0445503
31
190_C13H13N3O2_18-20-21-22 (-30,) energy =    -817.9336719
N           1.6079330    -0.9686233     0.2741274
H           1.6385865     0.0250025     0.4621528
C           2.7856930    -1.6414298     0.0133327
N           3.8870595    -0.7942422     0.0634120
H           3.7601515     0.1860624     0.2836396
O           2.8604000    -2.8387801    -0.2337577
C           7.9302184    -1.4229111    -0.5118322
H           9.0037654    -1.5054734    -0.6474005
C           7.0865226    -2.5283932    -0.6441871
H           7.4936552    -3.5060079    -0.8887412
C           5.7154669    -2.3851469    -0.4631190
H           5.0267141    -3.2125214    -0.5551480
C           5.2367406    -1.1023528    -0.1481683
N           6.0309896    -0.0292970    -0.0169124
C           7.3449510    -0.1992806    -0.1968822
H           7.9548281     0.6953258    -0.0813487
C          -2.3763893    -2.3144264     0.4604452
H          -3.4138906    -2.6303273     0.5188178
C          -2.0478039    -0.9751166     0.6925272
H          -2.8245933    -0.2573510     0.9342376
C          -0.7210143    -0.5638285     0.6114087
O          -0.2927667     0.7232062     0.8635679
C          -1.1968833     1.7871962     0.5895182
H          -1.6482478     1.6763183    -0.4039162
H          -0.6074781     2.7057620     0.6280646
H          -1.9913988     1.8449463     1.3440451
C           0.3045936    -1.4924345     0.3169809
C          -0.0350928    -2.8305261     0.0928839
H           0.7501910    -3.5364335    -0.1372691
C          -1.3718974    -3.2310726     0.1638541
H          -1.6195508    -4.2733082    -0.0159212
31
190_C13H13N3O2_18-20-21-22 (-15,) energy =    -817.9345179
N           1.6242715    -0.9495856     0.2275370
H           1.6553606     0.0505487     0.3748458
C           2.8049112    -1.6305287     0.0032079
N           3.9049990    -0.7802096     0.0252370
H           3.7746800     0.2091723     0.1977258
O           2.8833794    -2.8370955    -0.1923432
C           7.9540421    -1.4255862    -0.4875876
H           9.0288633    -1.5116973    -0.6102471
C           7.1134430    -2.5376432    -0.5778128
H           7.5243891    -3.5242758    -0.7752413
C           5.7406324    -2.3894503    -0.4149858
H           5.0542032    -3.2215758    -0.4762979
C           5.2567869    -1.0949595    -0.1614537
N           6.0480794    -0.0154853    -0.0713626
C           7.3638279    -0.1904633    -0.2325106
H           7.9710600     0.7097565    -0.1518612
C          -2.3589629    -2.2948854     0.4275260
H          -3.3970096    -2.6088154     0.4869710
C          -2.0363368    -0.9456174     0.6109514
H          -2.8200744    -0.2241043     0.8133602
C          -0.7089989    -0.5357973     0.5319195
O          -0.2767592     0.7585240     0.7188298
C          -1.2422280     1.7995037     0.6902063
H          -1.8414698     1.7599364    -0.2280080
H          -0.6799785     2.7347534     0.7218305
H          -1.9090046     1.7523939     1.5606012
C           0.3207573    -1.4738827     0.2791447
C          -0.0145226    -2.8188157     0.1009832
H           0.7740014    -3.5313718    -0.0949994
C          -1.3516645    -3.2201211     0.1752128
H          -1.5957725    -4.2688647     0.0326553
31
190_C13H13N3O2_18-20-21-22 (0,) energy =    -817.9348285
N           1.6285468    -0.9343349     0.1854267
H           1.6587334     0.0699895     0.2998459
C           2.8116400    -1.6208771    -0.0071971
N           3.9099150    -0.7677453    -0.0078516
H           3.7763093     0.2270573     0.1268255
O           2.8936777    -2.8333400    -0.1597732
C           7.9633332    -1.4226174    -0.4700773
H           9.0390809    -1.5112050    -0.5825424
C           7.1255293    -2.5391510    -0.5242331
H           7.5394291    -3.5316856    -0.6820349
C           5.7514073    -2.3880033    -0.3758766
H           5.0667088    -3.2230920    -0.4109395
C           5.2635554    -1.0859455    -0.1740752
N           6.0521170    -0.0021035    -0.1190922
C           7.3692223    -0.1800376    -0.2651674
H           7.9741769     0.7239069    -0.2143034
C          -2.3541653    -2.2788200     0.4014082
H          -3.3923704    -2.5920833     0.4620893
C          -2.0363559    -0.9218035     0.5310467
H          -2.8251853    -0.1953953     0.6904192
C          -0.7084672    -0.5132536     0.4543414
O          -0.2786103     0.7895705     0.5672152
C          -1.2485031     1.8036862     0.7776442
H          -1.9616349     1.8530967    -0.0550524
H          -0.6950289     2.7426297     0.8368698
H          -1.7962361     1.6439989     1.7151159
C           0.3251288    -1.4586889     0.2460442
C          -0.0060941    -2.8099102     0.1183419
H           0.7857463    -3.5279880    -0.0405763
C          -1.3432540    -3.2112725     0.1968586
H          -1.5839329    -4.2655824     0.0955513
31
190_C13H13N3O2_18-20-21-22 (15,) energy =    -817.9345179
N           1.6162606    -0.9395133     0.1425804
H           1.6413901     0.0680844     0.2265464
C           2.8028594    -1.6279813    -0.0183915
N           3.8983502    -0.7718852    -0.0452075
H           3.7602100     0.2273936     0.0440713
O           2.8896588    -2.8450351    -0.1253866
C           7.9574979    -1.4300745    -0.4506032
H           9.0343844    -1.5188087    -0.5513166
C           7.1237327    -2.5507663    -0.4680407
H           7.5423026    -3.5470447    -0.5843481
C           5.7479862    -2.3988447    -0.3364165
H           5.0665258    -3.2372478    -0.3447583
C           5.2541986    -1.0917658    -0.1887376
N           6.0388207    -0.0038653    -0.1696556
C           7.3575965    -0.1826913    -0.2986174
H           7.9591648     0.7246856    -0.2782786
C          -2.3641056    -2.2884118     0.3730356
H          -3.4019557    -2.6025875     0.4345795
C          -2.0515212    -0.9265434     0.4496039
H          -2.8432836    -0.1949499     0.5665607
C          -0.7236994    -0.5173307     0.3757194
O          -0.3052234     0.7942621     0.4161495
C          -1.2262104     1.7794141     0.8609481
H          -2.0423966     1.9198862     0.1408744
H          -0.6592034     2.7086956     0.9431423
H          -1.6472886     1.5161710     1.8392986
C           0.3143975    -1.4658864     0.2117323
C          -0.0114938    -2.8225993     0.1334822
H           0.7839868    -3.5438810     0.0115029
C          -1.3478843    -3.2248489     0.2157017
H          -1.5843058    -4.2832386     0.1549500
31
190_C13H13N3O2_18-20-21-22 (30,) energy =    -817.9336719
N           1.5910995    -0.9475575     0.0957294
H           1.6082563     0.0630562     0.1398974
C           2.7818062    -1.6366560    -0.0274056
N           3.8733136    -0.7770961    -0.0822918
H           3.7294211     0.2245687    -0.0427265
O           2.8746331    -2.8567848    -0.0817322
C           7.9386110    -1.4336802    -0.4221726
H           9.0167128    -1.5219918    -0.5093287
C           7.1098152    -2.5578866    -0.3959478
H           7.5336123    -3.5564694    -0.4631987
C           5.7323059    -2.4064991    -0.2834783
H           5.0544025    -3.2475071    -0.2600145
C           5.2318456    -1.0963590    -0.1997670
N           6.0115473    -0.0050217    -0.2233351
C           7.3321667    -0.1834036    -0.3325276
H           7.9296984     0.7267190    -0.3483855
C          -2.3877840    -2.3001349     0.3401294
H          -3.4249323    -2.6164631     0.4023345
C          -2.0784636    -0.9366217     0.3672192
H          -2.8706671    -0.1994801     0.4449920
C          -0.7507773    -0.5264765     0.2955359
O          -0.3483467     0.7929858     0.2730303
C          -1.1632216     1.7450443     0.9469493
H          -2.0815651     1.9582266     0.3856121
H          -0.5711260     2.6602507     1.0137881
H          -1.4263764     1.3979690     1.9535396
C           0.2910490    -1.4754815     0.1736502
C          -0.0306247    -2.8362064     0.1412600
H           0.7680578    -3.5589591     0.0536151
C          -1.3660508    -3.2384656     0.2269590
H          -1.5990056    -4.2991697     0.2036060
31
190_C13H13N3O2_18-20-21-22 (45,) energy =    -817.9326051
N           1.5608004    -0.9532062     0.0426186
H           1.5665012     0.0588828     0.0364409
C           2.7577171    -1.6379603    -0.0379132
N           3.8433395    -0.7737205    -0.1225299
H           3.6916796     0.2275370    -0.1317342
O           2.8594253    -2.8585779    -0.0341929
C           7.9165822    -1.4141015    -0.3919332
H           8.9961285    -1.4979488    -0.4643695
C           7.0957171    -2.5422612    -0.3225906
H           7.5273965    -3.5395743    -0.3400542
C           5.7160584    -2.3964413    -0.2307372
H           5.0440925    -3.2407245    -0.1756018
C           5.2053623    -1.0877420    -0.2118627
N           5.9773189     0.0073294    -0.2775208
C           7.3002418    -0.1657373    -0.3654807
H           7.8913165     0.7472608    -0.4170258
C          -2.4136090    -2.3183882     0.2910386
H          -3.4496580    -2.6388253     0.3499238
C          -2.1101337    -0.9545483     0.2747573
H          -2.9033204    -0.2145874     0.3131455
C          -0.7835423    -0.5405242     0.2073780
O          -0.4020283     0.7874591     0.1376255
C          -1.0533523     1.6943800     1.0248333
H          -2.0828900     1.9011589     0.7083389
H          -0.4817373     2.6244180     0.9851092
H          -1.0619301     1.3060129     2.0504367
C           0.2639170    -1.4856140     0.1278420
C          -0.0506043    -2.8498297     0.1367534
H           0.7523991    -3.5710365     0.0816174
C          -1.3842953    -3.2546845     0.2220387
H          -1.6120189    -4.3168256     0.2317661
31
190_C13H13N3O2_18-20-21-22 (60,) energy =    -817.9318888
N           1.5311813    -0.9429739    -0.0105030
H           1.5257321     0.0669712    -0.0817464
C           2.7334903    -1.6229334    -0.0415286
N           3.8149894    -0.7588743    -0.1668943
H           3.6570708     0.2389883    -0.2373002
O           2.8414853    -2.8405672     0.0348492
C           7.8955092    -1.3827671    -0.3620659
H           8.9763145    -1.4615081    -0.4199607
C           7.0828778    -2.5114471    -0.2319317
H           7.5225463    -3.5043257    -0.1854533
C           5.7013037    -2.3718032    -0.1610640
H           5.0360132    -3.2172094    -0.0609956
C           5.1798881    -1.0687685    -0.2254345
N           5.9440358     0.0265363    -0.3502384
C           7.2690498    -0.1403858    -0.4161721
H           7.8533139     0.7728019    -0.5175298
C          -2.4403990    -2.3168373     0.2376319
H          -3.4756455    -2.6408712     0.2898430
C          -2.1399185    -0.9540115     0.1914680
H          -2.9311445    -0.2101944     0.1950525
C          -0.8138709    -0.5384765     0.1291773
O          -0.4558254     0.7988882     0.0370231
C          -0.8857390     1.6333259     1.1142069
H          -1.9787191     1.7002553     1.1628247
H          -0.4785381     2.6267625     0.9126894
H          -0.5068299     1.2645974     2.0759215
C           0.2371837    -1.4793856     0.0837912
C          -0.0723899    -2.8455198     0.1231116
H           0.7325489    -3.5661454     0.0935318
C          -1.4053348    -3.2507423     0.2055672
H          -1.6301939    -4.3131102     0.2386847
31
190_C13H13N3O2_18-20-21-22 (75,) energy =    -817.9314634
N           1.4937208    -0.9301428    -0.0487590
H           1.4820086     0.0717524    -0.1961929
C           2.7007782    -1.6032305    -0.0303490
N           3.7766037    -0.7414928    -0.2051705
H           3.6134143     0.2486064    -0.3420717
O           2.8150791    -2.8123725     0.1267759
C           7.8610923    -1.3534230    -0.3324467
H           8.9425898    -1.4305637    -0.3779943
C           7.0532484    -2.4753151    -0.1324819
H           7.4973160    -3.4605779    -0.0171168
C           5.6705227    -2.3386709    -0.0799339
H           5.0082596    -3.1787438     0.0720493
C           5.1439596    -1.0455027    -0.2343910
N           5.9031193     0.0433125    -0.4269993
C           7.2293477    -0.1204744    -0.4731720
H           7.8099058     0.7869668    -0.6313297
C          -2.4769488    -2.3148277     0.1827751
H          -3.5111540    -2.6437097     0.2237713
C          -2.1789320    -0.9524884     0.1186876
H          -2.9664456    -0.2045123     0.0989405
C          -0.8535204    -0.5349318     0.0700851
O          -0.5209994     0.8107856    -0.0299710
C          -0.6890540     1.5530327     1.1823048
H          -1.7378379     1.5585773     1.5023247
H          -0.3733702     2.5760476     0.9643416
H          -0.0726620     1.1388848     1.9908256
C           0.2017414    -1.4705014     0.0525176
C          -0.1034613    -2.8372698     0.1133566
H           0.7032204    -3.5566192     0.1070992
C          -1.4365207    -3.2441935     0.1848426
H          -1.6581613    -4.3067199     0.2331923
31
190_C13H13N3O2_18-20-21-22 (90,) energy =    -817.9307483
N           1.4499793    -0.9211414    -0.0731271
H           1.4341775     0.0667573    -0.2956151
C           2.6626976    -1.5831016    -0.0104429
N           3.7336659    -0.7278025    -0.2363529
H           3.5644766     0.2504460    -0.4366606
O           2.7830671    -2.7786276     0.2247338
C           7.8231198    -1.3167759    -0.3105152
H           8.9053284    -1.3882281    -0.3475999
C           7.0229396    -2.4293021    -0.0401895
H           7.4739731    -3.4014481     0.1407005
C           5.6389871    -2.3000535    -0.0009263
H           4.9827952    -3.1336894     0.2037153
C           5.1034090    -1.0238866    -0.2412739
N           5.8550704     0.0557031    -0.5021058
C           7.1826523    -0.1005451    -0.5333332
H           7.7569397     0.7990945    -0.7484981
C          -2.5142545    -2.3295893     0.1265245
H          -3.5469817    -2.6648235     0.1486353
C          -2.2239529    -0.9651383     0.0696314
H          -3.0111469    -0.2172231     0.0418068
C          -0.9008415    -0.5398726     0.0487944
O          -0.5955975     0.8132275    -0.0451113
C          -0.4781810     1.4676110     1.2242829
H          -1.4266132     1.4293263     1.7738660
H          -0.2221930     2.5086711     1.0131341
H           0.3075514     1.0107085     1.8399385
C           0.1605332    -1.4686886     0.0370032
C          -0.1359021    -2.8370012     0.0979628
H           0.6743707    -3.5524414     0.1022284
C          -1.4677469    -3.2517889     0.1503360
H          -1.6832768    -4.3156686     0.1970350
31
190_C13H13N3O2_18-20-21-22 (105,) energy =    -817.9291887
N           1.3998352    -0.9182671    -0.0947581
H           1.3816371     0.0496446    -0.3910476
C           2.6183753    -1.5640365     0.0208542
N           3.6828477    -0.7183165    -0.2626556
H           3.5084036     0.2435000    -0.5277025
O           2.7459557    -2.7380336     0.3429296
C           7.7762678    -1.2817972    -0.2812185
H           8.8590448    -1.3483819    -0.3095036
C           6.9823724    -2.3793771     0.0595090
H           7.4390084    -3.3342393     0.3063105
C           5.5974103    -2.2572340     0.0851217
H           4.9456103    -3.0795529     0.3428275
C           5.0550001    -1.0035623    -0.2417612
N           5.8002882     0.0616038    -0.5707114
C           7.1290104    -0.0872559    -0.5866349
H           7.6983139     0.7999946    -0.8588280
C          -2.5492843    -2.3679865     0.0795003
H          -3.5782331    -2.7154438     0.0752963
C          -2.2740741    -0.9995951     0.0584813
H          -3.0683119    -0.2592717     0.0394829
C          -0.9567262    -0.5549542     0.0824540
O          -0.6903389     0.8066809     0.0108850
C          -0.2941229     1.3942796     1.2576075
H          -1.1074802     1.3331910     1.9912313
H          -0.0741933     2.4434227     1.0459429
H           0.5957692     0.9069818     1.6744310
C           0.1139321    -1.4731163     0.0414066
C          -0.1668867    -2.8452760     0.0753421
H           0.6528320    -3.5500675     0.0682442
C          -1.4932329    -3.2789469     0.1059202
H          -1.6961635    -4.3460388     0.1297226
31
190_C13H13N3O2_18-20-21-22 (120,) energy =    -817.9262468
N           1.3718338    -0.8938787    -0.0875913
H           1.3571696     0.0430131    -0.4698306
C           2.5923244    -1.5309034     0.0643402
N           3.6559778    -0.7076850    -0.2812343
H           3.4823853     0.2343465    -0.6102897
O           2.7203573    -2.6789673     0.4678412
C           7.7486020    -1.2777989    -0.2788216
H           8.8311356    -1.3480319    -0.3072530
C           6.9548651    -2.3480774     0.1400960
H           7.4113572    -3.2844148     0.4500199
C           5.5701793    -2.2221731     0.1634969
H           4.9184399    -3.0236191     0.4803317
C           5.0281623    -0.9931075    -0.2464823
N           5.7732137     0.0457473    -0.6510860
C           7.1017088    -0.1059100    -0.6626965
H           7.6709417     0.7596107    -0.9976864
C          -2.5603604    -2.3890664     0.0048598
H          -3.5842348    -2.7480053    -0.0447003
C          -2.3040499    -1.0188312     0.0508848
H          -3.1078113    -0.2888694     0.0477163
C          -0.9953959    -0.5521542     0.1480152
O          -0.7872736     0.8186692     0.1285759
C          -0.1511006     1.3726499     1.2883773
H          -0.7944762     1.2618811     2.1703093
H          -0.0106048     2.4350185     1.0758579
H           0.8170371     0.9071821     1.4998575
C           0.0866381    -1.4552959     0.0623077
C          -0.1758155    -2.8317020     0.0384911
H           0.6542037    -3.5242512     0.0110023
C          -1.4937551    -3.2880848     0.0267240
H          -1.6811096    -4.3579621     0.0041182
31
190_C13H13N3O2_18-20-21-22 (135,) energy =    -817.9224912
N           1.2876850    -0.9282808    -0.2510682
H           1.2978836    -0.0287272    -0.7106479
C           2.4959931    -1.5387813     0.0421677
N           3.5820462    -0.7787632    -0.3727616
H           3.4324685     0.0963809    -0.8601657
O           2.5912726    -2.6195267     0.6067189
C           7.6640784    -1.3638843    -0.1102918
H           8.7459521    -1.4435771    -0.0815541
C           6.8410312    -2.3503525     0.4380601
H           7.2732105    -3.2285342     0.9104898
C           5.4581962    -2.2148315     0.3828316
H           4.7839829    -2.9529503     0.7929888
C           4.9482582    -1.0628637    -0.2380870
N           5.7215569    -0.1050215    -0.7695667
C           7.0475455    -0.2639286    -0.7010400
H           7.6403524     0.5346446    -1.1440487
C          -2.6363497    -2.4275062     0.0580616
H          -3.6604110    -2.7895185     0.0723761
C          -2.3797805    -1.0690848     0.2212642
H          -3.1810460    -0.3535144     0.3775372
C          -1.0668974    -0.5909491     0.2380731
O          -0.9162510     0.7724733     0.3838679
C           0.0631648     1.2643060     1.3026245
H           0.1966299     0.5807577     2.1483596
H          -0.3191779     2.2213501     1.6675493
H           1.0370546     1.4348840     0.8305722
C           0.0000777    -1.4727182    -0.0306303
C          -0.2651689    -2.8424428    -0.1711012
H           0.5632386    -3.5182175    -0.3402107
C          -1.5724757    -3.3169810    -0.1089036
H          -1.7593869    -4.3809605    -0.2217898
31
190_C13H13N3O2_18-20-21-22 (150,) energy =    -817.9201282
N           1.2425867    -0.9507680    -0.6066950
H           1.3046700    -0.4569192    -1.4878674
C           2.4092163    -1.3661886     0.0104973
N           3.5522074    -0.9234786    -0.6423852
H           3.4694562    -0.3886953    -1.4985160
O           2.4172213    -2.0232144     1.0428959
C           7.5782350    -1.3068046     0.2062254
H           8.6511212    -1.3628008     0.3593707
C           6.6784238    -1.9066261     1.0905809
H           7.0396178    -2.4486256     1.9606432
C           5.3099673    -1.8147061     0.8619917
H           4.5775528    -2.2641201     1.5173291
C           4.8929670    -1.1040720    -0.2756170
N           5.7407545    -0.5221661    -1.1361303
C           7.0508881    -0.6287120    -0.8896164
H           7.7060493    -0.1433630    -1.6111990
C          -2.6364089    -2.4517986     0.1622900
H          -3.6467281    -2.8188891     0.3217106
C          -2.2678255    -1.2168501     0.6792974
H          -2.9660200    -0.6105092     1.2476119
C          -0.9672952    -0.7152959     0.5032527
O          -0.7518824     0.5127522     1.0522091
C           0.5427737     0.8873517     1.5302924
H           1.0702737     0.0317219     1.9622297
H           0.3605086     1.6377557     2.3042506
H           1.1522588     1.3308721     0.7369767
C          -0.0456946    -1.4674475    -0.2522308
C          -0.4296328    -2.7212392    -0.7480805
H           0.3035768    -3.2890385    -1.3141782
C          -1.7092807    -3.2239758    -0.5446310
H          -1.9845651    -4.1966037    -0.9409333
31
190_C13H13N3O2_18-20-21-22 (165,) energy =    -817.9193786
N           1.2486733    -0.9074939    -0.5957267
H           1.3332367    -0.5844556    -1.5518705
C           2.4098038    -1.3109769     0.0486007
N           3.5602539    -0.9400458    -0.6334115
H           3.4872537    -0.4462440    -1.5147238
O           2.4050825    -1.8887316     1.1268867
C           7.5789639    -1.3627945     0.2311655
H           8.6507388    -1.4341164     0.3856803
C           6.6684314    -1.8822262     1.1544959
H           7.0197078    -2.3746200     2.0574597
C           5.3016976    -1.7726609     0.9230038
H           4.5613113    -2.1599764     1.6083431
C           4.8979103    -1.1280544    -0.2577143
N           5.7559995    -0.6234631    -1.1558730
C           7.0641063    -0.7445708    -0.9053199
H           7.7280762    -0.3223942    -1.6578791
C          -2.6024467    -2.5072458     0.1574173
H          -3.6020618    -2.9018839     0.3183056
C          -2.2236093    -1.3306315     0.7860633
H          -2.9050153    -0.7957120     1.4399801
C          -0.9387852    -0.7828366     0.6107021
O          -0.7523437     0.3810704     1.2879437
C           0.5383298     0.9475727     1.5136667
H           1.2396431     0.1965301     1.8874790
H           0.3783643     1.7135506     2.2765198
H           0.9397934     1.4160709     0.6102569
C          -0.0367556    -1.4455210    -0.2468888
C          -0.4343862    -2.6444570    -0.8586461
H           0.2844975    -3.1443517    -1.5029105
C          -1.7001971    -3.1833895    -0.6701590
H          -1.9806967    -4.1103306    -1.1608270
31
190_C13H13N3O2_18-20-21-22 (180,) energy =    -817.9188146
N           1.3876517    -1.0916796     1.0327187
H           1.6654928    -1.0927634     2.0068611
C           2.3954064    -1.2856736     0.0944800
N           3.6637860    -1.0954185     0.6238086
H           3.7695343    -0.8347642     1.5968591
O           2.1703342    -1.5453356    -1.0790057
C           7.4352619    -1.1866108    -1.0622639
H           8.4565168    -1.1908587    -1.4292472
C           6.3545547    -1.4793325    -1.8975475
H           6.5169238    -1.7203099    -2.9447972
C           5.0591142    -1.4645700    -1.3923263
H           4.1934697    -1.6834895    -2.0011121
C           4.9014773    -1.1473028    -0.0333073
N           5.9254825    -0.8636721     0.7841968
C           7.1595072    -0.8862995     0.2691694
H           7.9636416    -0.6505859     0.9643129
C          -2.5530438    -2.5808875     0.5380043
H          -3.5654167    -2.9607337     0.4306651
C          -2.2374140    -1.3280213     0.0359410
H          -2.9832340    -0.7162596    -0.4615856
C          -0.9427329    -0.7859211     0.1542238
O          -0.8437912     0.4602165    -0.3778318
C           0.3584894     1.2260162    -0.3858427
H           0.7098421     1.4433080     0.6273638
H           0.0872007     2.1609236    -0.8820447
H           1.1424247     0.7238942    -0.9579246
C           0.0486493    -1.5559921     0.7975659
C          -0.2912219    -2.8260960     1.2905245
H           0.4932193    -3.4056399     1.7715685
C          -1.5733109    -3.3463904     1.1781461
H          -1.8031278    -4.3307610     1.5741680
