31
190_C13H13N3O2_2-0-26-27 (-165,) energy =    -817.9188631
N           1.5327737    -1.9889106    -0.7483634
H           1.7054244    -2.1963870    -1.7229233
C           2.6487700    -1.6188284     0.0046225
N           3.7134913    -1.2595208    -0.8175781
H           3.5405207    -1.0362222    -1.7897653
O           2.7113276    -1.6770519     1.2195202
C           7.6989171    -0.5060139    -0.0271824
H           8.7555424    -0.2927303     0.0986538
C           6.9005371    -0.9171119     1.0430446
H           7.3270207    -1.0322037     2.0361516
C           5.5496661    -1.1786773     0.8443579
H           4.8917792    -1.4847354     1.6451848
C           5.0450756    -1.0174527    -0.4570125
N           5.7950320    -0.6213006    -1.4961265
C           7.0899094    -0.3733625    -1.2723469
H           7.6638975    -0.0524134    -2.1402277
C          -2.6153246    -1.7057620    -0.0020651
H          -3.6832265    -1.6464290     0.1874223
C          -1.7390005    -0.9198550     0.7482651
H          -2.1374191    -0.2390701     1.4917501
C          -0.3588248    -0.9575796     0.5169988
O           0.5284790    -0.1127210     1.1023801
C           0.0962235     0.7030147     2.1775775
H          -0.6416249     1.4486891     1.8511836
H           0.9909502     1.2128974     2.5380101
H          -0.3311114     0.1011847     2.9895607
C           0.1606116    -1.8807989    -0.4237943
C          -0.7409401    -2.6113598    -1.2057123
H          -0.3418062    -3.2863642    -1.9601953
C          -2.1178130    -2.5369369    -1.0015061
H          -2.7875497    -3.1328850    -1.6140831
31
190_C13H13N3O2_2-0-26-27 (-150,) energy =    -817.9223188
N           1.4998457    -1.8027834    -0.9147857
H           1.6464117    -1.9134073    -1.9086386
C           2.6144052    -1.5613632    -0.1178806
N           3.7108879    -1.1685699    -0.8803007
H           3.5707483    -0.8680895    -1.8368985
O           2.6388034    -1.7243182     1.0898882
C           7.6871896    -0.5785676     0.0746348
H           8.7442235    -0.4021600     0.2459417
C           6.8492685    -1.0552079     1.0859931
H           7.2443855    -1.2605974     2.0775222
C           5.4994161    -1.2673089     0.8304534
H           4.8118660    -1.6219807     1.5850479
C           5.0360292    -0.9888969    -0.4666455
N           5.8244039    -0.5288207    -1.4495530
C           7.1175696    -0.3316248    -1.1716599
H           7.7233731     0.0437398    -1.9949929
C          -2.5811568    -1.8434364     0.1531988
H          -3.6320363    -1.8590825     0.4280642
C          -1.7132454    -0.9700349     0.8123676
H          -2.1038944    -0.3016063     1.5710859
C          -0.3582787    -0.9125093     0.4672709
O           0.5142866     0.0034420     0.9609456
C           0.1181049     0.8014254     2.0637391
H          -0.6994556     1.4851834     1.7975323
H           0.9992993     1.3828376     2.3394091
H          -0.1892842     0.1812366     2.9149693
C           0.1493562    -1.8186262    -0.4953011
C          -0.7450610    -2.6492206    -1.1747091
H          -0.3517945    -3.3174103    -1.9376794
C          -2.1039988    -2.6694215    -0.8605179
H          -2.7736242    -3.3361128    -1.3953610
31
190_C13H13N3O2_2-0-26-27 (-135,) energy =    -817.9246234
N           1.4810983    -1.5268055    -1.0242782
H           1.6272726    -1.7055495    -2.0082786
C           2.6057336    -1.4261776    -0.2100785
N           3.7317097    -1.0637046    -0.9424220
H           3.6164850    -0.7144201    -1.8858035
O           2.6022865    -1.6452493     0.9891220
C           7.7209199    -0.7272567     0.0794541
H           8.7835512    -0.6152084     0.2693354
C           6.8451236    -1.1961293     1.0619150
H           7.2152270    -1.4605512     2.0491082
C           5.4894271    -1.3247408     0.7828595
H           4.7740716    -1.6707628     1.5153567
C           5.0588446    -0.9716970    -0.5074154
N           5.8838994    -0.5177818    -1.4626426
C           7.1819716    -0.4019739    -1.1624950
H           7.8181000    -0.0286920    -1.9635974
C          -2.5056132    -2.0011705     0.2576874
H          -3.5329805    -2.1201748     0.5903295
C          -1.6984028    -1.0339836     0.8623925
H          -2.1131264    -0.4038150     1.6407420
C          -0.3771654    -0.8467332     0.4431382
O           0.4388667     0.1391856     0.8978752
C           0.0186471     0.9105843     2.0106644
H          -0.8714284     1.5102910     1.7764132
H           0.8515099     1.5771043     2.2404425
H          -0.1896357     0.2754617     2.8808088
C           0.1598508    -1.6986697    -0.5509372
C          -0.6712554    -2.6381597    -1.1620636
H          -0.2536925    -3.2740137    -1.9396421
C          -2.0019024    -2.7930975    -0.7699372
H          -2.6268608    -3.5368753    -1.2548234
31
190_C13H13N3O2_2-0-26-27 (-120,) energy =    -817.9254606
N           1.4631472    -1.2865139    -1.0692693
H           1.5964858    -1.4121649    -2.0639105
C           2.5985302    -1.3345826    -0.2641600
N           3.7458522    -0.9925405    -0.9713336
H           3.6547302    -0.5980208    -1.8995247
O           2.5781719    -1.6325126     0.9181895
C           7.7364816    -0.8689236     0.0923061
H           8.8010960    -0.8092177     0.2943661
C           6.8328233    -1.3390604     1.0486061
H           7.1824895    -1.6578442     2.0271431
C           5.4756089    -1.3997697     0.7543082
H           4.7397875    -1.7462504     1.4659899
C           5.0719605    -0.9769571    -0.5236476
N           5.9240917    -0.5214426    -1.4540101
C           7.2230779    -0.4728504    -1.1398268
H           7.8816189    -0.0958075    -1.9208059
C          -2.4206775    -2.1292189     0.3338351
H          -3.4224454    -2.3369430     0.6997421
C          -1.6937282    -1.0756097     0.8950994
H          -2.1427566    -0.4752883     1.6779103
C          -0.4071961    -0.7783181     0.4334519
O           0.3467936     0.2642737     0.8686716
C          -0.1105537     1.0103745     1.9845022
H          -1.0462854     1.5411118     1.7622224
H           0.6741949     1.7385621     2.1960273
H          -0.2567983     0.3677940     2.8618347
C           0.1668524    -1.5839020    -0.5760510
C          -0.5745855    -2.6285113    -1.1250995
H          -0.1180367    -3.2415308    -1.8987846
C          -1.8720024    -2.9011596    -0.6860078
H          -2.4343573    -3.7188286    -1.1265018
31
190_C13H13N3O2_2-0-26-27 (-105,) energy =    -817.9258934
N           1.4323931    -1.3396809    -1.1591966
H           1.4529306    -0.4543944    -1.6559138
C           2.5765676    -1.5952538    -0.3947453
N           3.7052465    -0.9843561    -0.9240182
H           3.6347835    -0.4883346    -1.8041362
O           2.5781618    -2.3135785     0.5911211
C           7.6695728    -0.9708613     0.2405074
H           8.7269109    -0.9196892     0.4797762
C           6.7659750    -1.6623026     1.0513520
H           7.1084436    -2.1699209     1.9494012
C           5.4185714    -1.7071768     0.7123187
H           4.6848272    -2.2346417     1.3050885
C           5.0242241    -1.0369617    -0.4582000
N           5.8767583    -0.3690958    -1.2494895
C           7.1665819    -0.3450790    -0.8970640
H           7.8262502     0.2059773    -1.5656353
C          -2.3738556    -2.1994588     0.4499825
H          -3.3556062    -2.4112212     0.8651497
C          -1.6867687    -1.0605054     0.8807888
H          -2.1404441    -0.4071144     1.6172506
C          -0.4218532    -0.7758850     0.3578934
O           0.3287024     0.3154735     0.6829250
C          -0.1514978     1.1839305     1.6988941
H          -1.0978664     1.6591616     1.4090856
H           0.6149678     1.9509542     1.8221858
H          -0.2886883     0.6501875     2.6475784
C           0.1516416    -1.6441526    -0.5940292
C          -0.5542838    -2.7624877    -1.0222914
H          -0.0925323    -3.4068431    -1.7640865
C          -1.8174729    -3.0522753    -0.4996931
H          -2.3575334    -3.9327707    -0.8340301
31
190_C13H13N3O2_2-0-26-27 (-90,) energy =    -817.9271146
N           1.4474602    -1.1985327    -1.0437270
H           1.4602501    -0.2237796    -1.3278463
C           2.6197003    -1.6045332    -0.3902091
N           3.7304006    -0.9064727    -0.8421480
H           3.6282220    -0.2613052    -1.6161819
O           2.6538893    -2.4976791     0.4396858
C           7.7414964    -1.1292291     0.1238632
H           8.8088130    -1.1287307     0.3204593
C           6.8642597    -1.9498970     0.8372127
H           7.2379993    -2.6132757     1.6128679
C           5.5028507    -1.9243004     0.5570010
H           4.7884087    -2.5459882     1.0776399
C           5.0681932    -1.0514399    -0.4546670
N           5.8946979    -0.2570510    -1.1506840
C           7.1988094    -0.3051578    -0.8585606
H           7.8367186     0.3532830    -1.4461622
C          -2.3239604    -2.2741485     0.5110410
H          -3.3000840    -2.5383283     0.9087975
C          -1.7418583    -1.0593193     0.8857760
H          -2.2688737    -0.3993058     1.5653260
C          -0.4837871    -0.7124672     0.3861033
O           0.1773702     0.4507795     0.6676695
C          -0.4285715     1.3662136     1.5685909
H          -1.3888937     1.7337365     1.1839648
H           0.2683453     2.2011126     1.6601763
H          -0.5832222     0.9118237     2.5552810
C           0.1865448    -1.5860997    -0.4937334
C          -0.4199377    -2.7773381    -0.8772265
H           0.1075293    -3.4231852    -1.5720398
C          -1.6697932    -3.1353130    -0.3663101
H          -2.1290371    -4.0740048    -0.6607792
31
190_C13H13N3O2_2-0-26-27 (-75,) energy =    -817.9289906
N           1.4734322    -1.0722150    -0.8769241
H           1.4858771    -0.0646758    -0.9984214
C           2.6661494    -1.5965751    -0.3597649
N           3.7634896    -0.8225843    -0.7070714
H           3.6355641    -0.0264798    -1.3200493
O           2.7269022    -2.6367979     0.2750096
C           7.8094943    -1.2376735     0.0203863
H           8.8840910    -1.2771286     0.1668812
C           6.9566789    -2.1892341     0.5851956
H           7.3573777    -2.9985357     1.1900040
C           5.5847718    -2.1070861     0.3754398
H           4.8879249    -2.8227343     0.7879583
C           5.1152523    -1.0439123    -0.4138656
N           5.9178289    -0.1213850    -0.9645699
C           7.2326685    -0.2276343    -0.7451055
H           7.8503953     0.5393215    -1.2097430
C          -2.2992741    -2.3056314     0.5404168
H          -3.2794924    -2.6047785     0.9011046
C          -1.8167033    -1.0326054     0.8594326
H          -2.4218453    -0.3621925     1.4590684
C          -0.5544686    -0.6400002     0.4093776
O           0.0172309     0.5833971     0.6445658
C          -0.7166006     1.5327284     1.4037225
H          -1.6640861     1.7929646     0.9142982
H          -0.0843732     2.4202747     1.4656760
H          -0.9215628     1.1618024     2.4158964
C           0.2230501    -1.5233618    -0.3668794
C          -0.2882321    -2.7730395    -0.7050538
H           0.3163298    -3.4281889    -1.3229904
C          -1.5404325    -3.1769568    -0.2371716
H          -1.9219846    -4.1610437    -0.4920254
31
190_C13H13N3O2_2-0-26-27 (-60,) energy =    -817.9311536
N           1.5092735    -0.9817965    -0.6738518
H           1.5299708     0.0319712    -0.6855136
C           2.7098140    -1.5932562    -0.3026170
N           3.8041106    -0.7798309    -0.5590414
H           3.6655767     0.1127500    -1.0173498
O           2.7833271    -2.7256994     0.1484211
C           7.8694336    -1.3477991    -0.0869902
H           8.9483520    -1.4207726     0.0044730
C           7.0255075    -2.3742602     0.3440218
H           7.4377851    -3.2781087     0.7849120
C           5.6475481    -2.2458682     0.2107722
H           4.9571923    -3.0150417     0.5263175
C           5.1631539    -1.0598748    -0.3657207
N           5.9568696    -0.0638183    -0.7855761
C           7.2777109    -0.2170269    -0.6439613
H           7.8878131     0.6127680    -0.9972866
C          -2.2952233    -2.3186022     0.5408389
H          -3.2858783    -2.6400204     0.8496938
C          -1.8888848    -1.0079973     0.8114571
H          -2.5621086    -0.3288717     1.3221852
C          -0.6154077    -0.5871298     0.4276029
O          -0.1125229     0.6753364     0.6248686
C          -0.9399801     1.6361408     1.2630355
H          -1.8559892     1.8223069     0.6876159
H          -0.3507987     2.5535153     1.3144756
H          -1.2083258     1.3196327     2.2788968
C           0.2565100    -1.4782165    -0.2330034
C          -0.1780081    -2.7690407    -0.5288191
H           0.4953353    -3.4367455    -1.0529159
C          -1.4444109    -3.1971595    -0.1247664
H          -1.7643825    -4.2113839    -0.3442256
31
190_C13H13N3O2_2-0-26-27 (-45,) energy =    -817.9329048
N           1.5400605    -0.9267649    -0.4576681
H           1.5604821     0.0844847    -0.4009858
C           2.7450368    -1.5863720    -0.2339407
N           3.8351677    -0.7450464    -0.4100793
H           3.6864028     0.2128373    -0.7036359
O           2.8328663    -2.7730847     0.0459777
C           7.9129957    -1.3772456    -0.1980775
H           8.9943495    -1.4623868    -0.1639159
C           7.0818324    -2.4612828     0.0942971
H           7.5070018    -3.4241261     0.3653228
C           5.7002495    -2.3149946     0.0401263
H           5.0196998    -3.1260939     0.2560426
C           5.1988111    -1.0518895    -0.3159040
N           5.9803057     0.0004616    -0.5996191
C           7.3049489    -0.1717466    -0.5387022
H           7.9044812     0.7055393    -0.7764562
C          -2.3111895    -2.3243498     0.5130777
H          -3.3149371    -2.6582732     0.7599083
C          -1.9563839    -0.9907679     0.7429363
H          -2.6830296    -0.3041491     1.1622381
C          -0.6681256    -0.5563085     0.4364287
O          -0.2101561     0.7287313     0.6071785
C          -1.1086442     1.7008425     1.1191068
H          -1.9778323     1.8287335     0.4612313
H          -0.5469615     2.6356537     1.1645090
H          -1.4527095     1.4346734     2.1265884
C           0.2775668    -1.4548308    -0.1058550
C          -0.1001950    -2.7739303    -0.3586699
H           0.6270511    -3.4535911    -0.7831178
C          -1.3870806    -3.2099300    -0.0334130
H          -1.6630072    -4.2434269    -0.2207661
31
190_C13H13N3O2_2-0-26-27 (-30,) energy =    -817.9340323
N           1.5735994    -0.9082079    -0.2436178
H           1.5994635     0.0994632    -0.1525323
C           2.7749915    -1.5953664    -0.1649231
N           3.8654258    -0.7415236    -0.2757755
H           3.7164130     0.2503817    -0.4159587
O           2.8681570    -2.8092429    -0.0415125
C           7.9430730    -1.4066412    -0.2965709
H           9.0242463    -1.4988837    -0.3124108
C           7.1147501    -2.5190815    -0.1295090
H           7.5416807    -3.5114998    -0.0105782
C           5.7332431    -2.3635879    -0.1141222
H           5.0549078    -3.1952510     0.0112923
C           5.2289353    -1.0618684    -0.2721174
N           6.0079534     0.0181361    -0.4332948
C           7.3326048    -0.1637483    -0.4435706
H           7.9299209     0.7368380    -0.5769527
C          -2.3315977    -2.3043210     0.4806089
H          -3.3497822    -2.6337923     0.6663972
C          -1.9995958    -0.9585916     0.6728322
H          -2.7578321    -0.2578004     1.0033685
C          -0.6950781    -0.5294376     0.4424333
O          -0.2557739     0.7660103     0.5898875
C          -1.1915285     1.7528360     0.9953081
H          -2.0109583     1.8482567     0.2714679
H          -0.6375887     2.6921893     1.0423468
H          -1.6069415     1.5258723     1.9853498
C           0.2956673    -1.4437941     0.0142313
C          -0.0550505    -2.7791981    -0.1938394
H           0.7060441    -3.4728564    -0.5232314
C          -1.3633804    -3.2059501     0.0509772
H          -1.6182242    -4.2501309    -0.1049479
31
190_C13H13N3O2_2-0-26-27 (-15,) energy =    -817.9346427
N           1.6020487    -0.9080942    -0.0305606
H           1.6307403     0.0967700     0.0816290
C           2.7963255    -1.6022228    -0.0898175
N           3.8902415    -0.7455190    -0.1394768
H           3.7460979     0.2569151    -0.1407938
O           2.8875951    -2.8231298    -0.1109987
C           7.9601068    -1.4146622    -0.3866068
H           9.0394622    -1.5065832    -0.4518153
C           7.1302524    -2.5370961    -0.3322668
H           7.5542292    -3.5376387    -0.3543129
C           5.7511822    -2.3814463    -0.2487685
H           5.0722718    -3.2208523    -0.2052717
C           5.2502851    -1.0690250    -0.2235580
N           6.0310754     0.0206030    -0.2747607
C           7.3532801    -0.1617871    -0.3543758
H           7.9516864     0.7470518    -0.3940036
C          -2.3476059    -2.2828776     0.4464962
H          -3.3774912    -2.6043576     0.5717131
C          -2.0256742    -0.9298622     0.6039524
H          -2.8030915    -0.2148896     0.8483826
C          -0.7077875    -0.5110010     0.4477908
O          -0.2756697     0.7896233     0.5746893
C          -1.2327836     1.7909602     0.8824552
H          -2.0026478     1.8606922     0.1034429
H          -0.6804159     2.7311395     0.9315501
H          -1.7128980     1.5999530     1.8506219
C           0.3104226    -1.4422574     0.1308672
C          -0.0266381    -2.7878196    -0.0339040
H           0.7539545    -3.4951720    -0.2756050
C          -1.3522432    -3.2010210     0.1303775
H          -1.5970014    -4.2517033     0.0044198
31
190_C13H13N3O2_2-0-26-27 (0,) energy =    -817.9348260
N           1.6203570    -0.9391821     0.1854019
H           1.6489910     0.0644990     0.3057991
C           2.8047905    -1.6234811    -0.0061462
N           3.9022206    -0.7692861    -0.0103207
H           3.7656209     0.2276698     0.1038856
O           2.8885392    -2.8363952    -0.1544426
C           7.9563937    -1.4175099    -0.4766766
H           9.0321017    -1.5039308    -0.5909963
C           7.1224768    -2.5376550    -0.5121664
H           7.5394188    -3.5309071    -0.6568161
C           5.7482797    -2.3890801    -0.3620713
H           5.0668871    -3.2272868    -0.3837629
C           5.2560588    -1.0860171    -0.1778415
N           6.0410317     0.0011860    -0.1411530
C           7.3583615    -0.1741955    -0.2883248
H           7.9601964     0.7325375    -0.2525910
C          -2.3610116    -2.2863828     0.3915199
H          -3.3991562    -2.6003172     0.4495055
C          -2.0438403    -0.9293657     0.5234173
H          -2.8329464    -0.2030112     0.6816390
C          -0.7159252    -0.5205864     0.4499136
O          -0.2871089     0.7823634     0.5650168
C          -1.2581154     1.7951886     0.7768277
H          -1.9707647     1.8455370    -0.0562147
H          -0.7056434     2.7345864     0.8381464
H          -1.8063008     1.6330715     1.7136238
C           0.3180353    -1.4658760     0.2436474
C          -0.0120049    -2.8171270     0.1133462
H           0.7797467    -3.5355680    -0.0446898
C          -1.3493788    -3.2183928     0.1881270
H          -1.5897233    -4.2725816     0.0850069
31
190_C13H13N3O2_2-0-26-27 (15,) energy =    -817.9346415
N           1.6332219    -0.9838496     0.4002845
H           1.6608134     0.0205728     0.5167884
C           2.8036067    -1.6461345     0.0790419
N           3.9053331    -0.7991615     0.1206658
H           3.7839720     0.1748986     0.3699068
O           2.8722362    -2.8374951    -0.1955510
C           7.9341147    -1.4128302    -0.5621798
H           9.0042406    -1.4917288    -0.7244153
C           7.0871238    -2.5148280    -0.7022948
H           7.4881584    -3.4860167    -0.9802510
C           5.7206331    -2.3762130    -0.4864932
H           5.0294741    -3.2010086    -0.5835621
C           5.2497941    -1.1016724    -0.1289786
N           6.0472704    -0.0320330     0.0103235
C           7.3566764    -0.1974399    -0.2039348
H           7.9694213     0.6941574    -0.0805848
C          -2.3640499    -2.3011407     0.3519258
H          -3.4058926    -2.6080650     0.3470248
C          -2.0488004    -0.9411556     0.4528515
H          -2.8428757    -0.2066875     0.5256641
C          -0.7163151    -0.5398112     0.4570739
O          -0.2881480     0.7646252     0.5550392
C          -1.2647069     1.7884016     0.6636019
H          -1.9172218     1.8125290    -0.2184244
H          -0.7114900     2.7269804     0.7304761
H          -1.8778882     1.6616805     1.5649061
C           0.3232900    -1.4959081     0.3598670
C          -0.0054077    -2.8506266     0.2704463
H           0.7917911    -3.5766209     0.1964847
C          -1.3468187    -3.2449355     0.2612595
H          -1.5858878    -4.3017239     0.1853955
31
190_C13H13N3O2_2-0-26-27 (30,) energy =    -817.9340270
N           1.6373989    -1.0386694     0.5984573
H           1.6610415    -0.0333120     0.7147855
C           2.7899541    -1.6629717     0.1461218
N           3.8983789    -0.8305932     0.2438955
H           3.7989094     0.0899146     0.6545568
O           2.8342845    -2.8146326    -0.2651150
C           7.8995209    -1.3757168    -0.6355392
H           8.9638200    -1.4389394    -0.8380359
C           7.0335149    -2.4342997    -0.9197020
H           7.4132622    -3.3549324    -1.3550554
C           5.6753231    -2.3168208    -0.6464394
H           4.9709911    -3.1110489    -0.8477942
C           5.2318591    -1.1083318    -0.0833408
N           6.0480172    -0.0813245     0.1962354
C           7.3488176    -0.2247101    -0.0781375
H           7.9771830     0.6309744     0.1638361
C          -2.3582938    -2.3325062     0.3262779
H          -3.3992226    -2.6368592     0.2664716
C          -2.0434229    -0.9699237     0.3780204
H          -2.8364134    -0.2308970     0.3590501
C          -0.7112888    -0.5718771     0.4500189
O          -0.2839295     0.7343360     0.5132649
C          -1.2617878     1.7626607     0.5196070
H          -1.8590702     1.7509977    -0.4009511
H          -0.7101010     2.7025276     0.5805972
H          -1.9296145     1.6745891     1.3861190
C           0.3248527    -1.5345131     0.4713737
C          -0.0048710    -2.8909681     0.4397424
H           0.7898198    -3.6242124     0.4577514
C          -1.3436045    -3.2836017     0.3552591
H          -1.5838782    -4.3421721     0.3195203
31
190_C13H13N3O2_2-0-26-27 (45,) energy =    -817.9329038
N           1.6517185    -1.0984829     0.8112312
H           1.6818959    -0.1007627     0.9839191
C           2.7805095    -1.6633677     0.2247898
N           3.9020538    -0.8606649     0.3830732
H           3.8300200     0.0032866     0.9067377
O           2.7903004    -2.7535289    -0.3282216
C           7.8556306    -1.3363299    -0.7195924
H           8.9098089    -1.3871621    -0.9722847
C           6.9631054    -2.3454243    -1.0891587
H           7.3110002    -3.2127101    -1.6442096
C           5.6189212    -2.2465362    -0.7478896
H           4.8939987    -3.0034672    -1.0109074
C           5.2177648    -1.1076548    -0.0297757
N           6.0593739    -0.1286801     0.3335292
C           7.3459085    -0.2524783    -0.0093663
H           7.9966446     0.5622204     0.3043510
C          -2.3412416    -2.3227247     0.2775798
H          -3.3802275    -2.6133950     0.1513043
C          -2.0072460    -0.9643308     0.2954497
H          -2.7839044    -0.2160465     0.1851390
C          -0.6755853    -0.5830614     0.4489907
O          -0.2307384     0.7170789     0.4930790
C          -1.1882714     1.7596836     0.3907036
H          -1.7184096     1.7215774    -0.5693735
H          -0.6255998     2.6927361     0.4557967
H          -1.9177344     1.7153318     1.2095759
C           0.3351132    -1.5603273     0.5881128
C          -0.0170199    -2.9103287     0.5998317
H           0.7614805    -3.6527626     0.7167258
C          -1.3508456    -3.2888671     0.4278819
H          -1.6091388    -4.3436706     0.4231496
31
190_C13H13N3O2_2-0-26-27 (60,) energy =    -817.9311517
N           1.6583441    -1.1993956     1.0239427
H           1.6963749    -0.2139504     1.2602524
C           2.7592410    -1.6806327     0.3093576
N           3.8950220    -0.9155520     0.5307530
H           3.8559025    -0.1435006     1.1852143
O           2.7288853    -2.6824149    -0.3882931
C           7.7909508    -1.2520659    -0.8047649
H           8.8323635    -1.2722585    -1.1094190
C           6.8687317    -2.1874779    -1.2802025
H           7.1798267    -2.9644880    -1.9735813
C           5.5422570    -2.1304062    -0.8675459
H           4.7957710    -2.8343314    -1.2066966
C           5.1891021    -1.1087185     0.0297269
N           6.0595960    -0.2019993     0.4971222
C           7.3281005    -0.2832401     0.0818426
H           8.0035935     0.4699993     0.4842701
C          -2.3273960    -2.3153268     0.2405889
H          -3.3626484    -2.5837565     0.0498048
C          -1.9525411    -0.9682280     0.2096651
H          -2.6959139    -0.2081700    -0.0022856
C          -0.6234107    -0.6150576     0.4443218
O          -0.1415408     0.6708577     0.4541409
C          -1.0546687     1.7323705     0.2207117
H          -1.5096028     1.6556732    -0.7749587
H          -0.4687585     2.6513679     0.2799833
H          -1.8467288     1.7546673     0.9802899
C           0.3373464    -1.6121289     0.7149679
C          -0.0593731    -2.9465682     0.7791376
H           0.6857527    -3.6998511     1.0055938
C          -1.3855041    -3.3012884     0.5222026
H          -1.6783975    -4.3463508     0.5566555
31
190_C13H13N3O2_2-0-26-27 (75,) energy =    -817.9289911
N           1.6649195    -1.3454790     1.1869111
H           1.7232654    -0.3927302     1.5317654
C           2.7285191    -1.7122795     0.3509530
N           3.8885315    -1.0147393     0.6542231
H           3.8957959    -0.3854697     1.4478748
O           2.6463265    -2.5774957    -0.5054187
C           7.7186379    -1.1692528    -0.8884335
H           8.7462539    -1.1518899    -1.2369878
C           6.7533189    -1.9807548    -1.4895689
H           7.0155401    -2.6194816    -2.3289677
C           5.4464341    -1.9769833    -1.0152929
H           4.6684674    -2.5915583    -1.4453887
C           5.1568237    -1.1355762     0.0719165
N           6.0694881    -0.3500791     0.6622355
C           7.3178861    -0.3761925     0.1836200
H           8.0291976     0.2743068     0.6901475
C          -2.3321724    -2.3032368     0.2535180
H          -3.3685907    -2.5340848     0.0232600
C          -1.8885936    -0.9812797     0.1488304
H          -2.5802070    -0.2051862    -0.1586348
C          -0.5562362    -0.6749854     0.4335463
O          -0.0111065     0.5815440     0.3815636
C          -0.8485260     1.6613979    -0.0040353
H          -1.2439187     1.5175706    -1.0174553
H          -0.2173248     2.5516398     0.0143707
H          -1.6840639     1.7921053     0.6958600
C           0.3318121    -1.6954825     0.8299852
C          -0.1352566    -2.9998939     0.9637072
H           0.5584990    -3.7662691     1.2923641
C          -1.4612907    -3.3124008     0.6570667
H          -1.8106986    -4.3364374     0.7474760
31
190_C13H13N3O2_2-0-26-27 (90,) energy =    -817.9271153
N           1.6630367    -1.4905773     1.3300324
H           1.7475044    -0.6054730     1.8204375
C           2.6860725    -1.7111438     0.3966236
N           3.8755495    -1.1094827     0.7818378
H           3.9315006    -0.6587303     1.6870945
O           2.5481317    -2.3921015    -0.6058088
C           7.6329406    -1.0159894    -0.9344208
H           8.6451561    -0.9465095    -1.3196601
C           6.6224792    -1.6736919    -1.6403236
H           6.8327272    -2.1354601    -2.6015505
C           5.3373459    -1.7433927    -1.1147849
H           4.5265088    -2.2471482    -1.6214936
C           5.1151513    -1.1324320     0.1308762
N           6.0720589    -0.4975912     0.8236406
C           7.2982307    -0.4484172     0.2921880
H           8.0469840     0.0743282     0.8853586
C          -2.3507167    -2.2711860     0.2931673
H          -3.3885631    -2.4595588     0.0320680
C          -1.8238966    -0.9899884     0.1031855
H          -2.4535029    -0.2050313    -0.3000539
C          -0.4886838    -0.7368482     0.4283635
O           0.1322081     0.4747367     0.3011584
C          -0.6113268     1.5566029    -0.2406728
H          -0.9541410     1.3347193    -1.2591025
H           0.0730437     2.4063702    -0.2665790
H          -1.4768548     1.8048572     0.3873774
C           0.3147593    -1.7716559     0.9483234
C          -0.2342176    -3.0323085     1.1562444
H           0.3998978    -3.8062040     1.5770460
C          -1.5636468    -3.2939763     0.8164563
H          -1.9793064    -4.2852270     0.9695667
31
190_C13H13N3O2_2-0-26-27 (105,) energy =    -817.9258889
N           1.6664841    -1.6528504     1.4083935
H           1.7946457    -0.8984537     2.0757559
C           2.6470632    -1.7072914     0.4110834
N           3.8668962    -1.2123183     0.8522143
H           3.9694561    -0.9451256     1.8236901
O           2.4527265    -2.1803063    -0.6962263
C           7.5569474    -0.8542159    -0.9728843
H           8.5552170    -0.7288145    -1.3797849
C           6.5050207    -1.3500484    -1.7472064
H           6.6677954    -1.6243940    -2.7862878
C           5.2396792    -1.4981276    -1.1909284
H           4.3986756    -1.8839964    -1.7492688
C           5.0787821    -1.1314012     0.1561349
N           6.0765821    -0.6549926     0.9153484
C           7.2824031    -0.5250441     0.3518192
H           8.0652882    -0.1365717     1.0014268
C          -2.3846826    -2.2166476     0.3631986
H          -3.4291995    -2.3533392     0.0960232
C          -1.7652942    -0.9955591     0.0801277
H          -2.3340757    -0.2064228    -0.3981885
C          -0.4214066    -0.8052847     0.4156252
O           0.2788370     0.3471471     0.2121244
C          -0.3611335     1.4108571    -0.4777053
H          -0.6770524     1.1019240    -1.4819482
H           0.3843733     2.2035558    -0.5602976
H          -1.2307798     1.7862413     0.0774866
C           0.2988631    -1.8503374     1.0304335
C          -0.3391769    -3.0510397     1.3187793
H           0.2395228    -3.8320589     1.8022388
C          -1.6814216    -3.2464914     0.9824143
H          -2.1680191    -4.1913101     1.2043569
31
190_C13H13N3O2_2-0-26-27 (120,) energy =    -817.9254612
N           1.6841385    -1.5847310     1.3303365
H           1.9955744    -1.9324414     2.2276090
C           2.6497293    -1.4233281     0.3396148
N           3.9134242    -1.2252671     0.8844925
H           4.0033333    -1.0559945     1.8788497
O           2.4064687    -1.4450662    -0.8551866
C           7.6413212    -0.7792924    -0.8393779
H           8.6513165    -0.6530122    -1.2158824
C           6.5663463    -1.0368329    -1.6939616
H           6.7220407    -1.1160747    -2.7667606
C           5.2857392    -1.1912412    -1.1757735
H           4.4232227    -1.3810348    -1.7987266
C           5.1350439    -1.0803312     0.2169284
N           6.1540830    -0.8321911     1.0531200
C           7.3734764    -0.6861729     0.5238219
H           8.1732595    -0.4842351     1.2346915
C          -2.4081420    -2.1749883     0.5124865
H          -3.4641508    -2.3172137     0.2998988
C          -1.7760745    -1.0054717     0.0809028
H          -2.3497403    -0.2538429    -0.4489678
C          -0.4207666    -0.7914109     0.3529567
O           0.2607491     0.3395105     0.0344571
C          -0.3797243     1.3088637    -0.7785669
H          -0.6977654     0.8792853    -1.7368669
H           0.3667258     2.0840635    -0.9594112
H          -1.2478446     1.7533565    -0.2731271
C           0.3133949    -1.7914947     1.0300559
C          -0.3349467    -2.9499089     1.4544863
H           0.2442100    -3.7118018     1.9711289
C          -1.6963093    -3.1452607     1.2116568
H          -2.1840341    -4.0539917     1.5510554
31
190_C13H13N3O2_2-0-26-27 (135,) energy =    -817.9246248
N           1.6585428    -1.7926354     1.2338918
H           1.9811311    -2.1682000     2.1150348
C           2.6170843    -1.4831194     0.2736749
N           3.8638373    -1.2649922     0.8512698
H           3.9311826    -1.1455140     1.8544677
O           2.3911903    -1.4286008    -0.9231587
C           7.6053048    -0.6174078    -0.7775373
H           8.6174122    -0.4415861    -1.1275761
C           6.5552184    -0.8692726    -1.6640980
H           6.7331195    -0.8935622    -2.7361106
C           5.2710277    -1.0879807    -1.1789749
H           4.4268919    -1.2740648    -1.8276849
C           5.0909384    -1.0479208     0.2141618
N           6.0858343    -0.8056293     1.0806263
C           7.3092032    -0.5958210     0.5828201
H           8.0886022    -0.4011142     1.3179292
C          -2.5037363    -2.0571930     0.6264730
H          -3.5766665    -2.1220595     0.4685227
C          -1.8024337    -0.9595367     0.1206005
H          -2.3404545    -0.1792704    -0.4054102
C          -0.4235032    -0.8413368     0.3237173
O           0.3139920     0.2407590    -0.0365030
C          -0.2857549     1.2300166    -0.8561258
H          -0.6603315     0.7987244    -1.7928924
H           0.5044412     1.9487052    -1.0792483
H          -1.1069402     1.7437049    -0.3379128
C           0.2698676    -1.8833765     0.9836913
C          -0.4531360    -2.9564280     1.5058172
H           0.0880262    -3.7418328     2.0287592
C          -1.8357064    -3.0494917     1.3379023
H          -2.3755354    -3.8983844     1.7463672
31
190_C13H13N3O2_2-0-26-27 (150,) energy =    -817.9223239
N           1.6827848    -2.0437391     1.0582811
H           2.0145429    -2.3927162     1.9468908
C           2.6367937    -1.6037456     0.1454900
N           3.8636199    -1.3749657     0.7624048
H           3.9078892    -1.3032410     1.7713237
O           2.4348310    -1.4824050    -1.0504266
C           7.6113271    -0.5095315    -0.7468122
H           8.6232216    -0.2793788    -1.0644474
C           6.5908569    -0.7567688    -1.6685635
H           6.7925538    -0.7221578    -2.7360586
C           5.3057441    -1.0461886    -1.2245495
H           4.4831644    -1.2306297    -1.9007652
C           5.0946566    -1.0810726     0.1643098
N           6.0607926    -0.8442811     1.0642053
C           7.2856724    -0.5651832     0.6057947
H           8.0410549    -0.3775531     1.3673398
C          -2.5253437    -1.9389428     0.7845636
H          -3.6091249    -1.9174287     0.7130948
C          -1.7778846    -0.9194354     0.1907450
H          -2.2899086    -0.1067618    -0.3116662
C          -0.3815638    -0.9092045     0.2826586
O           0.4016178     0.1147423    -0.1443159
C          -0.1781210     1.1334513    -0.9417050
H          -0.6509570     0.7167606    -1.8397939
H           0.6471279     1.7836997    -1.2361217
H          -0.9183146     1.7182478    -0.3787270
C           0.2786749    -1.9967922     0.9044945
C          -0.4901720    -2.9795449     1.5328470
H           0.0249427    -3.7927395     2.0395123
C          -1.8839287    -2.9604079     1.4792754
H          -2.4551456    -3.7459851     1.9645524
31
190_C13H13N3O2_2-0-26-27 (165,) energy =    -817.9188616
N           1.6783764    -2.1981064     0.8534188
H           2.0214861    -2.6190575     1.7064979
C           2.6445759    -1.6418850     0.0130147
N           3.8503774    -1.4588212     0.6849053
H           3.8652134    -1.4691915     1.6971349
O           2.4811704    -1.4183304    -1.1730006
C           7.6354936    -0.4505028    -0.6313389
H           8.6547645    -0.1891836    -0.8970034
C           6.6454053    -0.6236926    -1.6016462
H           6.8789875    -0.4977502    -2.6556766
C           5.3495119    -0.9556882    -1.2232404
H           4.5493505    -1.0853787    -1.9378956
C           5.0968513    -1.1092612     0.1503652
N           6.0333778    -0.9447034     1.0963622
C           7.2693956    -0.6216731     0.7011701
H           7.9998962    -0.4951994     1.4987063
C          -2.5296367    -1.8447170     0.9659957
H          -3.6127467    -1.7678625     0.9940075
C          -1.7905664    -0.8890290     0.2668117
H          -2.3052320    -0.0661543    -0.2158876
C          -0.3924046    -0.9469997     0.2261771
O           0.3887429     0.0290210    -0.3036913
C          -0.2171866     1.0570997    -1.0680504
H          -0.7976965     0.6453171    -1.9032561
H           0.6061321     1.6557927    -1.4606519
H          -0.8680599     1.6922923    -0.4517096
C           0.2725874    -2.0481800     0.8198441
C          -0.4845733    -2.9576352     1.5663934
H           0.0335240    -3.7773535     2.0601385
C          -1.8737717    -2.8701828     1.6409409
H          -2.4312398    -3.6049590     2.2139188
31
190_C13H13N3O2_2-0-26-27 (180,) energy =    -817.9150517
N           1.6704660    -2.2536066     0.6146704
H           2.0327311    -2.8026329     1.3833912
C           2.6617683    -1.6022715    -0.1340254
N           3.8474892    -1.5170384     0.5922814
H           3.8241511    -1.6194223     1.5992657
O           2.5462270    -1.2437571    -1.2907493
C           7.6947459    -0.4619492    -0.4861397
H           8.7273159    -0.1970609    -0.6895673
C           6.7396398    -0.5247087    -1.5036335
H           7.0147350    -0.3057933    -2.5320988
C           5.4249715    -0.8645896    -1.2049414
H           4.6504753    -0.9095811    -1.9571735
C           5.1186943    -1.1407679     0.1379243
N           6.0209651    -1.0829185     1.1285070
C           7.2760976    -0.7486677     0.8106513
H           7.9777376    -0.7107475     1.6424567
C          -2.4964803    -1.7720115     1.1592314
H          -3.5683086    -1.6678994     1.3002977
C          -1.8167603    -0.8653021     0.3445871
H          -2.3643132    -0.0528436    -0.1189166
C          -0.4333771    -0.9584547     0.1506806
O           0.2965179    -0.0334317    -0.5239824
C          -0.3743410     0.9970667    -1.2269667
H          -1.0737864     0.5886747    -1.9678845
H           0.4082518     1.5583312    -1.7397374
H          -0.9182104     1.6665537    -0.5464193
C           0.2766344    -2.0411276     0.7263269
C          -0.4176403    -2.9010143     1.5874055
H           0.1331169    -3.7082604     2.0671662
C          -1.7896018    -2.7840500     1.8009982
H          -2.2933064    -3.4832820     2.4615477
