31
190_C13H13N3O2_2-3-12-10 (-165,) energy =    -817.9207847
N           1.6985105    -1.0495012     0.2834810
H           1.8195833    -0.1808414     0.7865378
C           2.8265127    -1.7084902    -0.1810883
N           3.9820754    -1.1912658     0.4358394
H           3.8529293    -0.7258938     1.3232527
O           2.8210537    -2.6226231    -0.9809312
C           7.9306180    -1.6056789    -0.7335132
H           8.9498109    -1.7216129    -1.0876775
C           7.6504548    -1.1592341     0.5606043
H           8.4533004    -0.9153457     1.2512774
C           6.3280850    -1.0356149     0.9629569
H           6.0785931    -0.7055389     1.9684773
C           5.3140691    -1.3615416     0.0402841
N           5.5676280    -1.7686538    -1.2040733
C           6.8500376    -1.8944592    -1.5635763
H           7.0156784    -2.2379982    -2.5835991
C          -2.3888975    -1.7800835    -0.4063397
H          -3.4512431    -1.9423168    -0.5639532
C          -1.9648516    -0.6791035     0.3469657
H          -2.6972808     0.0007548     0.7673234
C          -0.6052952    -0.4650480     0.5524481
O          -0.0743123     0.5802313     1.2756991
C          -0.9651810     1.5349933     1.8295934
H          -1.5526392     2.0341021     1.0483783
H          -0.3405156     2.2712341     2.3390585
H          -1.6468806     1.0725799     2.5549720
C           0.3539785    -1.3505555     0.0044806
C          -0.0828665    -2.4434899    -0.7484099
H           0.6538926    -3.1086278    -1.1763574
C          -1.4509694    -2.6524281    -0.9474670
H          -1.7737610    -3.5064512    -1.5358623
31
190_C13H13N3O2_2-3-12-10 (-150,) energy =    -817.9212872
N           1.7198956    -0.9727230     0.2852614
H           1.8274343    -0.0808363     0.7494438
C           2.8612402    -1.6162277    -0.1627726
N           4.0089561    -1.0360238     0.4150064
H           3.8906710    -0.6184342     1.3278595
O           2.8798077    -2.5628751    -0.9244330
C           7.9355780    -1.6706318    -0.7278409
H           8.9493266    -1.8329925    -1.0794944
C           7.6653567    -1.3751855     0.6101392
H           8.4686191    -1.3037208     1.3386401
C           6.3481019    -1.1867776     1.0080178
H           6.1007772    -0.9809882     2.0464148
C           5.3360317    -1.2834707     0.0353884
N           5.5827372    -1.5438100    -1.2500025
C           6.8556257    -1.7473229    -1.6055596
H           7.0168197    -1.9697883    -2.6593291
C          -2.3530905    -1.8344245    -0.3372859
H          -3.4119723    -2.0306423    -0.4788874
C          -1.9517206    -0.6983990     0.3752720
H          -2.6984043    -0.0249769     0.7806616
C          -0.5964981    -0.4415293     0.5596884
O          -0.0878932     0.6408822     1.2427993
C          -0.9993354     1.5907483     1.7710462
H          -1.6062335     2.0464463     0.9782489
H          -0.3903266     2.3605662     2.2488199
H          -1.6625761     1.1363170     2.5182891
C           0.3811742    -1.3185324     0.0309333
C          -0.0329926    -2.4468317    -0.6814188
H           0.7173664    -3.1057307    -1.0952924
C          -1.3968433    -2.6984908    -0.8593127
H          -1.7020444    -3.5795739    -1.4163450
31
190_C13H13N3O2_2-3-12-10 (-135,) energy =    -817.9212204
N           1.7499273    -0.8777829     0.2849651
H           1.8359544     0.0318518     0.7183894
C           2.9052364    -1.4951190    -0.1585488
N           4.0432399    -0.8485529     0.3731207
H           3.9343270    -0.4811652     1.3096186
O           2.9502068    -2.4647934    -0.8903352
C           7.9396915    -1.7315357    -0.7198285
H           8.9455226    -1.9504751    -1.0637948
C           7.6487398    -1.5762579     0.6364098
H           8.4271534    -1.6776468     1.3879194
C           6.3393408    -1.3096349     1.0197334
H           6.0710372    -1.2135424     2.0686264
C           5.3639663    -1.1788317     0.0172286
N           5.6321197    -1.3079481    -1.2839832
C           6.8911497    -1.5954316    -1.6289956
H           7.0705664    -1.7080844    -2.6971080
C          -2.2987705    -1.8915892    -0.2545795
H          -3.3525010    -2.1260374    -0.3747588
C          -1.9268287    -0.7232056     0.4207041
H          -2.6894693    -0.0633276     0.8186673
C          -0.5786470    -0.4163251     0.5782035
O          -0.0980832     0.7009849     1.2238046
C          -1.0340982     1.6384698     1.7308510
H          -1.6638199     2.0475259     0.9304567
H          -0.4451702     2.4428996     2.1755882
H          -1.6743426     1.1885237     2.5005614
C           0.4203892    -1.2749232     0.0595342
C           0.0353724    -2.4358409    -0.6156638
H           0.8017671    -3.0807917    -1.0222717
C          -1.3214421    -2.7378424    -0.7668709
H          -1.6044449    -3.6437082    -1.2951598
31
190_C13H13N3O2_2-3-12-10 (-120,) energy =    -817.9203816
N           1.7569786    -0.8036532     0.2719609
H           1.8199370     0.1220963     0.6742334
C           2.9261074    -1.3951703    -0.1668094
N           4.0521578    -0.6879404     0.3126470
H           3.9534161    -0.3245913     1.2529998
O           2.9974705    -2.3878559    -0.8665273
C           7.9093587    -1.8033586    -0.7210580
H           8.9069841    -2.0762565    -1.0503494
C           7.5671347    -1.7914475     0.6313050
H           8.2925963    -2.0652572     1.3926489
C           6.2687219    -1.4469923     0.9936850
H           5.9536023    -1.4601007     2.0335806
C           5.3669798    -1.0897861    -0.0191562
N           5.6841045    -1.0885698    -1.3156417
C           6.9257571    -1.4557129    -1.6473583
H           7.1477192    -1.4573371    -2.7133534
C          -2.2616398    -1.9671614    -0.1860312
H          -3.3082181    -2.2400253    -0.2859652
C          -1.9215549    -0.7674076     0.4498927
H          -2.7015134    -0.1218529     0.8376618
C          -0.5827705    -0.4108548     0.5814356
O          -0.1329695     0.7406418     1.1875982
C          -1.0943284     1.6618807     1.6766458
H          -1.7456785     2.0251207     0.8714557
H          -0.5278688     2.4985572     2.0899269
H          -1.7111886     1.2149870     2.4669750
C           0.4386087    -1.2506003     0.0756708
C           0.0850356    -2.4432085    -0.5602440
H           0.8686708    -3.0733502    -0.9571386
C          -1.2623667    -2.7951511    -0.6856306
H          -1.5206313    -3.7252499    -1.1836555
31
190_C13H13N3O2_2-3-12-10 (-105,) energy =    -817.9202165
N           1.7029816    -0.8715085     0.3575617
H           1.7228680     0.0209982     0.8327042
C           2.8993248    -1.5284493     0.1534188
N           4.0054652    -0.7440743     0.5510055
H           3.8546123     0.2481571     0.3854908
O           3.0168275    -2.6667791    -0.2686701
C           7.7682827    -1.7474204    -0.9162738
H           8.7403479    -1.9722117    -1.3444841
C           7.4510907    -2.1061034     0.3934291
H           8.1758608    -2.6170839     1.0212592
C           6.1895228    -1.7849843     0.8900553
H           5.8900093    -2.0299945     1.9029712
C           5.2891837    -1.1402504     0.0406779
N           5.5870347    -0.7672497    -1.2054370
C           6.8050561    -1.0737546    -1.6678085
H           7.0195022    -0.7597317    -2.6878433
C          -2.2668295    -2.1070074    -0.2974445
H          -3.3020301    -2.3954536    -0.4554591
C          -1.9795233    -0.8704826     0.2924437
H          -2.7890714    -0.2118966     0.5862031
C          -0.6556143    -0.4940195     0.4983291
O          -0.2554703     0.6940208     1.0679390
C          -1.2549937     1.6068612     1.4911508
H          -1.8748617     1.9401129     0.6488683
H          -0.7236946     2.4633789     1.9104443
H          -1.8995864     1.1653343     2.2620576
C           0.4039095    -1.3516853     0.1162173
C           0.1031642    -2.5831283    -0.4708692
H           0.9169644    -3.2356419    -0.7547066
C          -1.2297810    -2.9531711    -0.6743993
H          -1.4465983    -3.9142913    -1.1316903
31
190_C13H13N3O2_2-3-12-10 (-90,) energy =    -817.9231663
N           1.6963671    -0.8744232     0.3538772
H           1.7162231     0.0438600     0.7773807
C           2.8933013    -1.5338910     0.1727504
N           3.9988561    -0.7193506     0.5159096
H           3.8401325     0.2573344     0.2787225
O           3.0151824    -2.6922873    -0.1901783
C           7.7839581    -1.6879381    -0.8969598
H           8.7702668    -1.8903925    -1.3028075
C           7.3520974    -2.2801642     0.2911943
H           8.0007622    -2.9547709     0.8432022
C           6.0828438    -1.9749516     0.7728796
H           5.7024122    -2.3917059     1.6985863
C           5.2801382    -1.1161636     0.0174672
N           5.6881361    -0.5205624    -1.1047266
C           6.9196219    -0.8086865    -1.5467759
H           7.2247779    -0.3068632    -2.4633202
C          -2.2726956    -2.1586636    -0.2048030
H          -3.3077586    -2.4591853    -0.3394062
C          -1.9864961    -0.8912993     0.3160214
H          -2.7967626    -0.2212245     0.5802568
C          -0.6627395    -0.4990452     0.4914627
O          -0.2634399     0.7187819     0.9938184
C          -1.2634107     1.6496918     1.3753888
H          -1.8905601     1.9353994     0.5211780
H          -0.7320930     2.5289635     1.7444043
H          -1.9004172     1.2475016     2.1735807
C           0.3972646    -1.3720719     0.1476620
C           0.0977694    -2.6342830    -0.3703843
H           0.9121878    -3.2978836    -0.6252032
C          -1.2350092    -3.0199646    -0.5437671
H          -1.4511494    -4.0049456    -0.9473900
31
190_C13H13N3O2_2-3-12-10 (-75,) energy =    -817.9266974
N           1.6851379    -0.8890678     0.3475967
H           1.7055268     0.0554850     0.7088869
C           2.8804863    -1.5561323     0.1915389
N           3.9874266    -0.7273901     0.4883606
H           3.8256107     0.2494513     0.2548502
O           2.9992056    -2.7317479    -0.1144968
C           7.8056848    -1.6058515    -0.8711744
H           8.8080477    -1.7724662    -1.2530403
C           7.2642892    -2.4151841     0.1309245
H           7.8424898    -3.2297996     0.5583738
C           5.9813151    -2.1502380     0.5957316
H           5.5209999    -2.7388703     1.3803378
C           5.2701752    -1.1024411    -0.0002495
N           5.7806554    -0.3044617    -0.9406796
C           7.0274685    -0.5599978    -1.3608633
H           7.4153755     0.1097550    -2.1262866
C          -2.2876600    -2.2029595    -0.1032270
H          -3.3237525    -2.5104589    -0.2114308
C          -1.9973887    -0.9070425     0.3391451
H          -2.8055729    -0.2222229     0.5697331
C          -0.6723071    -0.5055745     0.4802353
O          -0.2682263     0.7392063     0.9062004
C          -1.2641854     1.6932732     1.2388078
H          -1.8974892     1.9279751     0.3737366
H          -0.7287793     2.5921389     1.5500536
H          -1.8951966     1.3407621     2.0646969
C           0.3845813    -1.3982503     0.1802090
C           0.0812578    -2.6886732    -0.2599972
H           0.8935102    -3.3661821    -0.4830514
C          -1.2528884    -3.0834517    -0.3990593
H          -1.4723615    -4.0903934    -0.7420718
31
190_C13H13N3O2_2-3-12-10 (-60,) energy =    -817.9299995
N           1.6724770    -0.9032941     0.3262487
H           1.6962387     0.0609006     0.6310650
C           2.8661947    -1.5765485     0.1824420
N           3.9728220    -0.7379618     0.4245606
H           3.8112434     0.2453579     0.2240510
O           2.9780774    -2.7650402    -0.0766108
C           7.8408602    -1.5367912    -0.8196521
H           8.8616546    -1.6746938    -1.1618153
C           7.1992823    -2.4958988    -0.0308220
H           7.7167003    -3.4044992     0.2649873
C           5.8959318    -2.2697018     0.3945947
H           5.3602068    -2.9803928     1.0107140
C           5.2664741    -1.0908505    -0.0282863
N           5.8704099    -0.1540258    -0.7653786
C           7.1344363    -0.3827410    -1.1467009
H           7.5964982     0.4013702    -1.7439288
C          -2.3077216    -2.2316992     0.0016376
H          -3.3457388    -2.5421005    -0.0750648
C          -2.0093391    -0.9147473     0.3703162
H          -2.8127519    -0.2165163     0.5760258
C          -0.6817763    -0.5095493     0.4706078
O          -0.2701195     0.7552190     0.8239656
C          -1.2599356     1.7282082     1.1186097
H          -1.9047832     1.9173934     0.2509622
H          -0.7187845     2.6412167     1.3735857
H          -1.8797511     1.4219230     1.9709370
C           0.3695197    -1.4191729     0.2030654
C           0.0580684    -2.7303849    -0.1640244
H           0.8654120    -3.4207360    -0.3640297
C          -1.2786272    -3.1288533    -0.2622302
H          -1.5045879    -4.1519816    -0.5483688
31
190_C13H13N3O2_2-3-12-10 (-45,) energy =    -817.9324165
N           1.6668661    -0.9135651     0.2806649
H           1.6948580     0.0636107     0.5403967
C           2.8585511    -1.5931582     0.1395533
N           3.9635351    -0.7459776     0.3123876
H           3.8026781     0.2434158     0.1512794
O           2.9604965    -2.7926595    -0.0739199
C           7.8956311    -1.4847920    -0.7394399
H           8.9362431    -1.6017118    -1.0247096
C           7.1747771    -2.5310664    -0.1571574
H           7.6484925    -3.4912264     0.0290449
C           5.8464601    -2.3368263     0.2020933
H           5.2507450    -3.1185599     0.6531180
C           5.2764212    -1.0839070    -0.0711461
N           5.9547614    -0.0663730    -0.6145448
C           7.2378073    -0.2738987    -0.9362645
H           7.7573578     0.5765501    -1.3745211
C          -2.3195755    -2.2517571     0.1118245
H          -3.3591854    -2.5640036     0.0745143
C          -2.0121378    -0.9204765     0.4159819
H          -2.8099253    -0.2129369     0.6115315
C          -0.6825193    -0.5129699     0.4656240
O          -0.2621703     0.7654496     0.7537896
C          -1.2441907     1.7512963     1.0316676
H          -1.9107736     1.9039762     0.1733293
H          -0.6966893     2.6737226     1.2336525
H          -1.8421224     1.4822498     1.9117162
C           0.3620197    -1.4343130     0.2113517
C           0.0414517    -2.7597226    -0.0915271
H           0.8429780    -3.4593574    -0.2821019
C          -1.2973445    -3.1604215    -0.1389795
H          -1.5303673    -4.1946258    -0.3752774
31
190_C13H13N3O2_2-3-12-10 (-30,) energy =    -817.9338770
N           1.6455529    -0.9303331     0.2572015
H           1.6780724     0.0598527     0.4605654
C           2.8332648    -1.6164814     0.1047179
N           3.9392963    -0.7730226     0.2298502
H           3.7898379     0.2278235     0.1650075
O           2.9223987    -2.8218998    -0.0867813
C           7.9225140    -1.4458831    -0.6514478
H           8.9782959    -1.5408480    -0.8841078
C           7.1452686    -2.5541735    -0.3051981
H           7.5886213    -3.5452957    -0.2575089
C           5.7971368    -2.3910662    -0.0081507
H           5.1589597    -3.2210203     0.2599652
C           5.2684625    -1.0927608    -0.0923794
N           5.9998068    -0.0169038    -0.4135795
C           7.2969426    -0.2025287    -0.6837201
H           7.8572418     0.6952509    -0.9396014
C          -2.3480695    -2.2584219     0.2141234
H          -3.3891495    -2.5679340     0.2090793
C          -2.0306942    -0.9155800     0.4494209
H          -2.8226859    -0.1962694     0.6244782
C          -0.6990650    -0.5119260     0.4573226
O          -0.2697662     0.7771974     0.6771765
C          -1.2439720     1.7798227     0.9205493
H          -1.9232896     1.8922307     0.0660011
H          -0.6902655     2.7088842     1.0678031
H          -1.8290192     1.5575281     1.8220368
C           0.3383206    -1.4485053     0.2297702
C           0.0076488    -2.7853977    -0.0044826
H           0.8031247    -3.4964229    -0.1767605
C          -1.3332235    -3.1820103    -0.0104846
H          -1.5736964    -4.2252361    -0.1937151
31
190_C13H13N3O2_2-3-12-10 (-15,) energy =    -817.9346087
N           1.6357002    -0.9278694     0.2133230
H           1.6692801     0.0700659     0.3738126
C           2.8211447    -1.6164233     0.0466879
N           3.9239609    -0.7685623     0.1033053
H           3.7813586     0.2341856     0.1244877
O           2.9043779    -2.8271981    -0.1164448
C           7.9511564    -1.4197256    -0.5584027
H           9.0194371    -1.5069577    -0.7285062
C           7.1372289    -2.5453390    -0.4095325
H           7.5631598    -3.5440135    -0.4598437
C           5.7727071    -2.3942576    -0.1899684
H           5.1064881    -3.2368282    -0.0727411
C           5.2680537    -1.0842328    -0.1372936
N           6.0339991     0.0081561    -0.2739287
C           7.3435395    -0.1694304    -0.4784772
H           7.9305769     0.7415593    -0.5837993
C          -2.3547631    -2.2626944     0.3152629
H          -3.3949455    -2.5736683     0.3469534
C          -2.0347427    -0.9120862     0.4959264
H          -2.8238562    -0.1883425     0.6656913
C          -0.7042743    -0.5064163     0.4566123
O          -0.2720357     0.7900527     0.6208412
C          -1.2418408     1.8000742     0.8510151
H          -1.9416570     1.8807546     0.0095437
H          -0.6862738     2.7342936     0.9510577
H          -1.8046321     1.6102043     1.7738163
C           0.3295351    -1.4486393     0.2356265
C          -0.0039058    -2.7934416     0.0564056
H           0.7884333    -3.5089862    -0.1113861
C          -1.3435646    -3.1919147     0.0975637
H          -1.5860692    -4.2412517    -0.0432790
31
190_C13H13N3O2_2-3-12-10 (0,) energy =    -817.9348263
N           1.6282186    -0.9390309     0.1635189
H           1.6584714     0.0648699     0.2817078
C           2.8120471    -1.6269553    -0.0187544
N           3.9092180    -0.7725986    -0.0321004
H           3.7730141     0.2248306     0.0783760
O           2.8953619    -2.8413213    -0.1547976
C           7.9646653    -1.4320120    -0.4677372
H           9.0408253    -1.5221305    -0.5747690
C           7.1276283    -2.5498577    -0.5046163
H           7.5427049    -3.5447720    -0.6429496
C           5.7528812    -2.3969919    -0.3641287
H           5.0683990    -3.2326470    -0.3871513
C           5.2639567    -1.0917312    -0.1876007
N           6.0515933    -0.0063922    -0.1501850
C           7.3693339    -0.1861157    -0.2879284
H           7.9736377     0.7189523    -0.2518006
C          -2.3514811    -2.2867007     0.4074669
H          -3.3890516    -2.6005745     0.4750647
C          -2.0336912    -0.9295988     0.5365519
H          -2.8218031    -0.2038760     0.7023746
C          -0.7066619    -0.5200591     0.4512052
O          -0.2769762     0.7829628     0.5624360
C          -1.2458261     1.7958444     0.7836690
H          -1.9661012     1.8467476    -0.0427525
H          -0.6926307     2.7351033     0.8404311
H          -1.7853649     1.6333369     1.7253916
C           0.3259452    -1.4646688     0.2346901
C          -0.0052841    -2.8159041     0.1073032
H           0.7862351    -3.5330898    -0.0571055
C          -1.3415490    -3.2184117     0.1946905
H          -1.5822532    -4.2727483     0.0937985
31
190_C13H13N3O2_2-3-12-10 (15,) energy =    -817.9346081
N           1.6327257    -0.9611574     0.1640184
H           1.6556067     0.0480079     0.2260503
C           2.8129029    -1.6432408    -0.0577449
N           3.9042979    -0.7809644    -0.1184173
H           3.7818376     0.1936317     0.1295822
O           2.8984496    -2.8565316    -0.1992766
C           7.9678799    -1.4791564    -0.3999637
H           9.0467497    -1.5802476    -0.4597143
C           7.1143124    -2.5552232    -0.6553698
H           7.5189539    -3.5274455    -0.9242393
C           5.7367526    -2.3871286    -0.5717545
H           5.0405549    -3.1924328    -0.7569435
C           5.2621990    -1.1134696    -0.2166961
N           6.0654252    -0.0678373     0.0286086
C           7.3855684    -0.2594918    -0.0651330
H           8.0030592     0.6133235     0.1409279
C          -2.3347622    -2.3259055     0.4982582
H          -3.3690917    -2.6446095     0.5890741
C          -2.0261520    -0.9623774     0.5683249
H          -2.8184431    -0.2365287     0.7121781
C          -0.7032525    -0.5467931     0.4526730
O          -0.2824079     0.7627190     0.5060876
C          -1.2578301     1.7776947     0.6847640
H          -1.9828622     1.7840236    -0.1390371
H          -0.7115565     2.7226519     0.6940344
H          -1.7910808     1.6559855     1.6361778
C           0.3343567    -1.4919127     0.2643006
C           0.0124688    -2.8496693     0.1967689
H           0.8077269    -3.5668961     0.0515408
C          -1.3197306    -3.2580945     0.3137927
H          -1.5532203    -4.3174227     0.2586595
31
190_C13H13N3O2_2-3-12-10 (30,) energy =    -817.9338774
N           1.6368401    -0.9422619     0.1245214
H           1.6501430     0.0689449     0.1396978
C           2.8169715    -1.6181524    -0.1110990
N           3.8990969    -0.7437571    -0.2346369
H           3.7857591     0.2071518     0.0986914
O           2.9137245    -2.8326002    -0.2262347
C           7.9601550    -1.5146824    -0.3131643
H           9.0383324    -1.6384565    -0.3147903
C           7.1061168    -2.5242559    -0.7645369
H           7.5092410    -3.4633275    -1.1343944
C           5.7303017    -2.3263512    -0.7524740
H           5.0338121    -3.0817385    -1.0875491
C           5.2572605    -1.1003518    -0.2571561
N           6.0610373    -0.1176109     0.1714940
C           7.3813109    -0.3316083     0.1380552
H           8.0005613     0.4902725     0.4937502
C          -2.3076446    -2.3340613     0.5896252
H          -3.3364222    -2.6595101     0.7135625
C          -2.0127937    -0.9657734     0.6042686
H          -2.8095092    -0.2429189     0.7385610
C          -0.6971130    -0.5413599     0.4459667
O          -0.2900412     0.7734595     0.4433588
C          -1.2732286     1.7838139     0.6048268
H          -2.0147004     1.7521267    -0.2036207
H          -0.7377250     2.7342587     0.5684665
H          -1.7858325     1.6913653     1.5707769
C           0.3463011    -1.4822131     0.2696593
C           0.0383565    -2.8447565     0.2578854
H           0.8380530    -3.5588043     0.1212056
C          -1.2866240    -3.2621255     0.4174272
H          -1.5097589    -4.3250403     0.4052779
31
190_C13H13N3O2_2-3-12-10 (45,) energy =    -817.9324166
N           1.6457774    -0.9146139     0.0851613
H           1.6450679     0.0963317     0.0519258
C           2.8282876    -1.5824740    -0.1545799
N           3.8992021    -0.6941306    -0.3348073
H           3.7917472     0.2300730     0.0714316
O           2.9429689    -2.7967635    -0.2391387
C           7.9419618    -1.5642850    -0.2261953
H           9.0147886    -1.7197035    -0.1732533
C           7.1036467    -2.4683599    -0.8844192
H           7.5141933    -3.3514903    -1.3666216
C           5.7360446    -2.2273872    -0.9373004
H           5.0505123    -2.9004804    -1.4336902
C           5.2531945    -1.0807527    -0.2881004
N           6.0419407    -0.1968798     0.3343827
C           7.3578287    -0.4432800     0.3568111
H           7.9675555     0.2979811     0.8706583
C          -2.2660466    -2.3444295     0.6879945
H          -3.2867356    -2.6799400     0.8470537
C          -1.9932176    -0.9723514     0.6398940
H          -2.7986479    -0.2568710     0.7610473
C          -0.6880540    -0.5346403     0.4364791
O          -0.3020938     0.7847583     0.3706570
C          -1.2977542     1.7861003     0.5101034
H          -2.0548218     1.7091898    -0.2806724
H          -0.7782350     2.7420818     0.4227813
H          -1.7892324     1.7268662     1.4895562
C           0.3661918    -1.4662072     0.2773189
C           0.0803194    -2.8325564     0.3279541
H           0.8887216    -3.5390790     0.2031334
C          -1.2341059    -3.2633714     0.5325279
H          -1.4403504    -4.3291413     0.5688236
31
190_C13H13N3O2_2-3-12-10 (60,) energy =    -817.9299988
N           1.6429364    -0.8951934     0.0423326
H           1.6296887     0.1132121    -0.0356256
C           2.8283354    -1.5570972    -0.1934480
N           3.8877332    -0.6614171    -0.4427579
H           3.7866725     0.2486390    -0.0014318
O           2.9616057    -2.7706960    -0.2333940
C           7.9020844    -1.6333924    -0.1511028
H           8.9656187    -1.8224448    -0.0449287
C           7.1048443    -2.4053669    -1.0009803
H           7.5386804    -3.2133156    -1.5838785
C           5.7500681    -2.1180752    -1.1144763
H           5.0938649    -2.6840405    -1.7631319
C           5.2356202    -1.0777958    -0.3285368
N           5.9856295    -0.3166441     0.4738565
C           7.2935032    -0.5973257     0.5518254
H           7.8751227     0.0429150     1.2127494
C          -2.2340335    -2.3487580     0.7953753
H          -3.2459530    -2.6907513     0.9922691
C          -1.9816625    -0.9764150     0.6843701
H          -2.7940994    -0.2671637     0.7950127
C          -0.6877403    -0.5304932     0.4323376
O          -0.3225684     0.7900712     0.3030943
C          -1.3292390     1.7824750     0.4255950
H          -2.1035447     1.6628564    -0.3429028
H          -0.8260603     2.7411350     0.2869417
H          -1.7967116     1.7567962     1.4181895
C           0.3753091    -1.4540352     0.2868608
C           0.1099480    -2.8207102     0.4000538
H           0.9254449    -3.5208130     0.2850884
C          -1.1931983    -3.2598461     0.6533374
H          -1.3836571    -4.3257930     0.7382445
31
190_C13H13N3O2_2-3-12-10 (75,) energy =    -817.9266974
N           1.6517331    -0.8758280     0.0235816
H           1.6239073     0.1260511    -0.1127493
C           2.8411785    -1.5343314    -0.1995294
N           3.8904599    -0.6357867    -0.5026091
H           3.7950224     0.2598350    -0.0296689
O           2.9905373    -2.7457332    -0.1932400
C           7.8754244    -1.7134289    -0.1111371
H           8.9276786    -1.9401365     0.0291011
C           7.1394211    -2.2883563    -1.1504607
H           7.6100916    -2.9732758    -1.8504430
C           5.7981373    -1.9536966    -1.2959384
H           5.1865562    -2.3604528    -2.0925138
C           5.2336362    -1.0824884    -0.3573770
N           5.9273980    -0.5052443     0.6261755
C           7.2250472    -0.8214803     0.7378429
H           7.7632862    -0.3327509     1.5480104
C          -2.1939404    -2.3443658     0.8984101
H          -3.1980233    -2.6907596     1.1255079
C          -1.9641187    -0.9760478     0.7133250
H          -2.7863965    -0.2745559     0.7975372
C          -0.6803747    -0.5242849     0.4221494
O          -0.3368116     0.7930252     0.2200420
C          -1.3571840     1.7752949     0.3024564
H          -2.1382665     1.6040533    -0.4492882
H          -0.8705329     2.7327551     0.1076889
H          -1.8131481     1.7950657     1.3005616
C           0.3948901    -1.4382632     0.3111569
C           0.1519542    -2.8010253     0.4978311
H           0.9770641    -3.4935052     0.4073042
C          -1.1409279    -3.2460583     0.7902778
H          -1.3137822    -4.3089380     0.9322970
31
190_C13H13N3O2_2-3-12-10 (90,) energy =    -817.9231664
N           1.6626878    -0.8586946     0.0194109
H           1.6223793     0.1315093    -0.1827585
C           2.8585210    -1.5152921    -0.1787108
N           3.8976608    -0.6202897    -0.5289410
H           3.8063165     0.2741672    -0.0525065
O           3.0216046    -2.7227054    -0.1152412
C           7.8587400    -1.8008176    -0.1013553
H           8.8987958    -2.0677972     0.0585813
C           7.2002846    -2.1184071    -1.2906617
H           7.7204434    -2.6367067    -2.0915029
C           5.8703056    -1.7396984    -1.4458615
H           5.3155171    -1.9449700    -2.3544035
C           5.2407352    -1.0911270    -0.3802311
N           5.8630656    -0.7558584     0.7514427
C           7.1488145    -1.1099872     0.8789855
H           7.6298534    -0.8216880     1.8119400
C          -2.1585327    -2.3229286     1.0030957
H          -3.1564983    -2.6686190     1.2567592
C          -1.9481079    -0.9648747     0.7369992
H          -2.7791578    -0.2703718     0.7858110
C          -0.6722949    -0.5142211     0.4112044
O          -0.3482411     0.7938861     0.1305625
C          -1.3821996     1.7645136     0.1611227
H          -2.1648939     1.5382123    -0.5742838
H          -0.9107268     2.7157381    -0.0928002
H          -1.8332761     1.8368984     1.1590775
C           0.4147562    -1.4186916     0.3463109
C           0.1908941    -2.7714012     0.6133735
H           1.0243802    -3.4574327     0.5562120
C          -1.0940350    -3.2153799     0.9403529
H          -1.2517067    -4.2704249     1.1448892
31
190_C13H13N3O2_2-3-12-10 (105,) energy =    -817.9202164
N           1.6687122    -0.8552094     0.0150791
H           1.6185041     0.1216045    -0.2418989
C           2.8680779    -1.5149077    -0.1604850
N           3.8970436    -0.6372426    -0.5699806
H           3.8004637     0.2887180    -0.1601896
O           3.0381663    -2.7162217    -0.0352501
C           7.8451955    -1.8622819    -0.0926905
H           8.8751186    -2.1564104     0.0848520
C           7.2825554    -1.9240408    -1.3671386
H           7.8667582    -2.2646124    -2.2176086
C           5.9576133    -1.5271550    -1.5351728
H           5.4697578    -1.5444641    -2.5033788
C           5.2447338    -1.1099870    -0.4102175
N           5.7771001    -1.0204387     0.8101356
C           7.0532265    -1.3962709     0.9571195
H           7.4603251    -1.3151491     1.9634946
C          -2.1347033    -2.2931793     1.1020602
H          -3.1281566    -2.6324685     1.3808886
C          -1.9364008    -0.9495806     0.7630565
H          -2.7725565    -0.2597196     0.7812345
C          -0.6664147    -0.5074702     0.4045395
O          -0.3545100     0.7868063     0.0529971
C          -1.3959731     1.7494157     0.0399668
H          -2.1819849     1.4788581    -0.6767808
H          -0.9341913     2.6897731    -0.2669436
H          -1.8409976     1.8707716     1.0359381
C           0.4275237    -1.4057254     0.3794915
C           0.2156097    -2.7440371     0.7194633
H           1.0542070    -3.4256714     0.6923823
C          -1.0635586    -3.1795532     1.0788516
H          -1.2115026    -4.2234899     1.3399750
31
190_C13H13N3O2_2-3-12-10 (120,) energy =    -817.9203816
N           1.7391802    -0.8074617     0.1026687
H           1.7454477     0.1862583    -0.0851527
C           2.9568898    -1.4568847     0.1711718
N           3.9882771    -0.6351930    -0.3378739
H           3.7234512    -0.0718074    -1.1369398
O           3.1366508    -2.5799070     0.6031833
C           7.9464953    -1.8692474    -0.3192591
H           8.9821252    -2.1871634    -0.2517302
C           7.3584577    -1.5608039    -1.5461325
H           7.9233253    -1.6401136    -2.4710917
C           6.0227068    -1.1723887    -1.5731657
H           5.5190968    -0.9580358    -2.5119320
C           5.3332314    -1.0723348    -0.3561104
N           5.8865036    -1.3559644     0.8249436
C           7.1603189    -1.7608346     0.8281445
H           7.5770686    -1.9974684     1.8058664
C          -2.1475597    -2.1319554     1.0262265
H          -3.1625935    -2.4435545     1.2551321
C          -1.9065901    -0.8126735     0.6251313
H          -2.7315073    -0.1137371     0.5449375
C          -0.6085057    -0.4064348     0.3305719
O          -0.2554271     0.8615898    -0.0733426
C          -1.2715296     1.8479987    -0.1545704
H          -2.0339736     1.5771894    -0.8963206
H          -0.7745342     2.7684815    -0.4666797
H          -1.7538236     2.0061709     0.8185208
C           0.4713515    -1.3159516     0.4349824
C           0.2174495    -2.6286074     0.8401899
H           1.0476500    -3.3149214     0.9320730
C          -1.0902053    -3.0289537     1.1314428
H          -1.2706949    -4.0527464     1.4461899
31
190_C13H13N3O2_2-3-12-10 (135,) energy =    -817.9212205
N           1.7176689    -0.8823322     0.0804127
H           1.7397287     0.1034980    -0.1439146
C           2.9222416    -1.5583763     0.1501395
N           3.9544298    -0.7842848    -0.4244022
H           3.6831953    -0.2146680    -1.2154803
O           3.0821562    -2.6671348     0.6223327
C           7.9667937    -1.8039286    -0.3049601
H           9.0145224    -2.0720178    -0.2136897
C           7.4308346    -1.3536645    -1.5125581
H           8.0524824    -1.2657529    -2.3995742
C           6.0787197    -1.0368148    -1.5743840
H           5.6207966    -0.7131006    -2.5054682
C           5.3113199    -1.1568506    -0.4039095
N           5.8149498    -1.5697584     0.7611794
C           7.1099886    -1.8997458     0.7910598
H           7.4835935    -2.2460179     1.7534775
C          -2.1805612    -2.0871164     1.1118573
H          -3.1982104    -2.3677332     1.3676035
C          -1.9175698    -0.7882368     0.6610183
H          -2.7284545    -0.0744647     0.5694072
C          -0.6161156    -0.4215474     0.3317412
O          -0.2410609     0.8232347    -0.1222760
C          -1.2356354     1.8296057    -0.2226370
H          -2.0156271     1.5511452    -0.9429875
H          -0.7228633     2.7269567    -0.5741617
H          -1.6987812     2.0325640     0.7514341
C           0.4451652    -1.3509529     0.4507168
C           0.1694988    -2.6427789     0.9057161
H           0.9859064    -3.3439073     1.0084356
C          -1.1415118    -3.0034823     1.2315564
H          -1.3390060    -4.0114831     1.5846995
31
190_C13H13N3O2_2-3-12-10 (150,) energy =    -817.9212913
N           1.6772956    -0.9313069     0.1806138
H           1.7725290    -0.3554256     1.0063203
C           2.8249275    -1.4675006    -0.3784697
N           3.9677366    -0.8257277     0.1428124
H           3.8503200     0.1386651     0.4222209
O           2.8526141    -2.3469677    -1.2164059
C           7.8961170    -2.0630087    -0.2650536
H           8.9094756    -2.4392584    -0.3614778
C           7.6304661    -0.6965290    -0.1522383
H           8.4381888     0.0304699    -0.1617909
C           6.3131947    -0.2705195    -0.0418196
H           6.0708840     0.7872720     0.0231662
C           5.2954244    -1.2421090    -0.0299207
N           5.5367821    -2.5517649    -0.1148952
C           6.8105647    -2.9368604    -0.2458099
H           6.9675050    -4.0115135    -0.3253752
C          -2.3843350    -1.6349115    -0.6682670
H          -3.4410239    -1.7934587    -0.8632345
C          -1.9972086    -0.7811954     0.3713400
H          -2.7517181    -0.2852375     0.9714445
C          -0.6452165    -0.5734209     0.6272592
O          -0.1491907     0.2430506     1.6192917
C          -1.0720359     0.8977077     2.4747552
H          -1.7205178     1.5832148     1.9141125
H          -0.4720201     1.4683901     3.1861444
H          -1.6938812     0.1758079     3.0194374
C           0.3427762    -1.2199894    -0.1538861
C          -0.0574767    -2.0723885    -1.1859597
H           0.7011635    -2.5744245    -1.7698640
C          -1.4180483    -2.2731448    -1.4380779
H          -1.7125603    -2.9396464    -2.2435687
31
190_C13H13N3O2_2-3-12-10 (165,) energy =    -817.9207848
N           1.6782910    -0.9197081     0.1074503
H           1.7912430    -0.3083894     0.9048592
C           2.8114949    -1.4765710    -0.4653145
N           3.9652690    -0.8063637    -0.0142217
H           3.8376564     0.1363198     0.3261275
O           2.8119861    -2.3890471    -1.2670358
C           7.9078740    -2.0499532    -0.2070468
H           8.9254129    -2.4234976    -0.2588170
C           7.6334280    -0.7064218     0.0618536
H           8.4390481     0.0041504     0.2265990
C           6.3133391    -0.2812647     0.1101238
H           6.0679173     0.7604744     0.3020353
C           5.2957495    -1.2311319    -0.1091225
N           5.5435572    -2.5199026    -0.3460996
C           6.8241788    -2.9027860    -0.4026847
H           6.9852605    -3.9602256    -0.6071505
C          -2.4042533    -1.6712765    -0.5885904
H          -3.4655262    -1.8414639    -0.7450582
C          -1.9892668    -0.7822377     0.4098122
H          -2.7274300    -0.2704090     1.0168689
C          -0.6311006    -0.5599844     0.6157434
O          -0.1088380     0.2913429     1.5644789
C          -1.0080852     0.9669259     2.4287861
H          -1.6779650     1.6319997     1.8687227
H          -0.3894059     1.5618559     3.1034026
H          -1.6081189     0.2586429     3.0142566
C           0.3357810    -1.2267041    -0.1749807
C          -0.0920134    -2.1141427    -1.1657634
H           0.6499229    -2.6314428    -1.7576393
C          -1.4587583    -2.3293084    -1.3674056
H          -1.7746120    -3.0229711    -2.1412350
31
190_C13H13N3O2_2-3-12-10 (180,) energy =    -817.9200400
N           1.7020651    -1.0750272     0.2918397
H           1.8246996    -0.2482379     0.8606166
C           2.8243177    -1.7237531    -0.2059262
N           3.9864477    -1.2441386     0.4246976
H           3.8529575    -0.6726427     1.2469292
O           2.8017800    -2.6012993    -1.0451363
C           7.9588834    -1.6481309    -0.6743235
H           8.9859988    -1.7756771    -1.0004157
C           7.6412565    -0.9449482     0.4911880
H           8.4217773    -0.5029505     1.1047667
C           6.3111654    -0.8134269     0.8617722
H           6.0345261    -0.2746066     1.7649997
C           5.3247544    -1.4023302     0.0430037
N           5.6141702    -2.0651971    -1.0762567
C           6.9046866    -2.1804171    -1.4115628
H           7.0981763    -2.7313111    -2.3308419
C          -2.3917483    -1.7049484    -0.4580848
H          -3.4556291    -1.8413048    -0.6291398
C          -1.9555681    -0.6552992     0.3588976
H          -2.6796051     0.0108483     0.8143236
C          -0.5942078    -0.4741932     0.5821781
O          -0.0519065     0.5205193     1.3665679
C          -0.9321432     1.4527593     1.9732464
H          -1.5098733     2.0050175     1.2210776
H          -0.2998781     2.1492060     2.5273833
H          -1.6227113     0.9574544     2.6678204
C           0.3553601    -1.3415128    -0.0104512
C          -0.0940048    -2.3835468    -0.8258165
H           0.6348456    -3.0360933    -1.2852043
C          -1.4639809    -2.5594775    -1.0432823
H          -1.7961442    -3.3741380    -1.6803061
