16
261_C6H7NO2_0-1-11-12 (-165,) energy =    -438.0378809
C           0.8459425    -1.0438096     0.2767611
N           2.1105469    -1.0782681    -0.2767916
H           2.2995982    -1.7007046    -1.0505106
C          -0.1353474    -2.0445969    -0.3109888
H          -0.9736487    -1.4968290    -0.7532972
H          -0.5390389    -2.6592083     0.4990923
H           0.2992608    -2.7004429    -1.0717586
C           4.6216495     1.3110748     0.7355520
H           5.1248204     2.0798616     1.3055970
C           3.3449258     0.7207154     1.0317571
H           2.6726885     0.9370068     1.8450711
C           3.1349784    -0.1922224     0.0405911
O           4.1694447    -0.2098717    -0.8451086
C           5.0811463     0.7196888    -0.3966675
H           5.9741312     0.8149670    -0.9934610
O           0.5446768    -0.2762158     1.1769159
16
261_C6H7NO2_0-1-11-12 (-150,) energy =    -438.0367796
C           0.8224142    -0.8714903     0.0955175
N           2.1738462    -1.1614153     0.0177274
H           2.4668594    -1.9912173    -0.4802332
C          -0.0928005    -1.9592782    -0.4428399
H          -0.7225604    -2.3282287     0.3729556
H           0.4362823    -2.8062699    -0.8905293
H          -0.7562576    -1.5169897    -1.1919868
C           4.6184745     1.3431498     0.9117883
H           5.0645553     2.2044047     1.3896307
C           3.2905995     0.8361454     1.1222705
H           2.5158537     1.2238515     1.7631235
C           3.1882410    -0.2542309     0.3110113
O           4.3385169    -0.4557769    -0.3926345
C           5.2128731     0.5309787     0.0001637
H           6.1893520     0.4916413    -0.4557652
O           0.3992116     0.1594293     0.5908330
16
261_C6H7NO2_0-1-11-12 (-135,) energy =    -438.0353079
C           0.9204984    -0.8785795     0.1081451
N           2.2593285    -1.2494550     0.0773099
H           2.5022033    -2.1121346    -0.3925199
C          -0.0285477    -1.9335629    -0.4377982
H          -0.9836917    -1.8492037     0.0838771
H           0.3567291    -2.9527142    -0.3287374
H          -0.2076369    -1.7454121    -1.5033183
C           4.8114478     1.2007141     0.8150815
H           5.3195602     2.0249195     1.2962463
C           3.5347291     0.6490913     1.1728069
H           2.8634927     0.9670833     1.9546322
C           3.3160839    -0.3674466     0.2933032
O           4.3514703    -0.4825702    -0.5898235
C           5.2677689     0.4794066    -0.2418562
H           6.1696763     0.4954678    -0.8331736
O           0.5456935     0.1941982     0.5450578
16
261_C6H7NO2_0-1-11-12 (-120,) energy =    -438.0340021
C           0.9291534    -0.8498704     0.0132559
N           2.2554264    -1.2614811     0.1215497
H           2.4890080    -2.1845705    -0.2218907
C          -0.0191973    -1.9432816    -0.4540926
H          -1.0130976    -1.7407378    -0.0513212
H           0.3018583    -2.9443557    -0.1475469
H          -0.0856454    -1.9243654    -1.5487121
C           4.8333450     1.1713615     0.8360508
H           5.3682195     1.9631946     1.3417776
C           3.6035162     0.5587735     1.2487463
H           3.0011259     0.7911398     2.1136707
C           3.3228696    -0.3849958     0.3089983
O           4.2845789    -0.3980845    -0.6658390
C           5.2077811     0.5496010    -0.3137041
H           6.0585418     0.6369728    -0.9714992
O           0.5657386     0.2795507     0.2786816
16
261_C6H7NO2_0-1-11-12 (-105,) energy =    -438.0332554
C           0.9238007    -0.8098005    -0.1035729
N           2.2248726    -1.2386727     0.1510747
H           2.4383831    -2.2145769    -0.0144517
C          -0.0390578    -1.9368111    -0.4460193
H          -1.0494764    -1.6291694    -0.1717172
H           0.2082288    -2.8751702     0.0616097
H          -0.0196214    -2.1171267    -1.5277229
C           4.8532025     1.1413973     0.8746405
H           5.4276061     1.8845763     1.4098992
C           3.6647950     0.4767914     1.3214053
H           3.1421572     0.6089742     2.2573503
C           3.2999369    -0.3666253     0.3171474
O           4.1823645    -0.2715171    -0.7300516
C           5.1252466     0.6430870    -0.3621800
H           5.9136223     0.8149960    -1.0789674
O           0.5927631     0.3583091    -0.0551846
16
261_C6H7NO2_0-1-11-12 (-90,) energy =    -438.0330198
C           0.9370011    -0.8067553    -0.2061591
N           2.2011680    -1.2235227     0.2018520
H           2.3882722    -2.2187114     0.2160526
C          -0.0405427    -1.9464955    -0.4511974
H          -1.0559828    -1.5712807    -0.3140403
H           0.1274952    -2.8001308     0.2141262
H           0.0573509    -2.2953806    -1.4863834
C           4.8888577     1.0974792     0.9101271
H           5.5128972     1.7859053     1.4627003
C           3.7379346     0.3923156     1.3887689
H           3.2981160     0.4331653     2.3748633
C           3.2789863    -0.3492690     0.3428869
O           4.0739387    -0.1535530    -0.7602974
C           5.0443682     0.7261631    -0.3907997
H           5.7605435     0.9817385    -1.1569987
O           0.6484450     0.3636425    -0.3592093
16
261_C6H7NO2_0-1-11-12 (-75,) energy =    -438.0328864
C           0.9570948    -0.7968982    -0.2903678
N           2.1719214    -1.1806758     0.2685077
H           2.3260274    -2.1668747     0.4385449
C          -0.0299905    -1.9397426    -0.4741293
H          -1.0419092    -1.5314658    -0.4657382
H           0.0609927    -2.7085220     0.3007962
H           0.1379694    -2.4149834    -1.4481792
C           4.9374695     1.0628933     0.9246016
H           5.6179710     1.6968529     1.4756729
C           3.8190133     0.3323616     1.4407246
H           3.4640272     0.2982372     2.4608676
C           3.2590669    -0.3130910     0.3795923
O           3.9598101    -0.0336476    -0.7668135
C           4.9680599     0.8078609    -0.4129155
H           5.6083476     1.1351834    -1.2179806
O           0.7180623     0.3503586    -0.6126964
16
261_C6H7NO2_0-1-11-12 (-60,) energy =    -438.0324726
C           0.9766407    -0.7951769    -0.3686900
N           2.1348354    -1.1184372     0.3298946
H           2.2441760    -2.0703030     0.6554334
C          -0.0129577    -1.9439247    -0.4938194
H          -1.0166835    -1.5287229    -0.5989493
H           0.0126518    -2.6249517     0.3638019
H           0.2118916    -2.5235523    -1.3972520
C           4.9909121     1.0195020     0.9396529
H           5.7284878     1.5916038     1.4849310
C           3.8964376     0.2713261     1.4831670
H           3.6216999     0.1614373     2.5226333
C           3.2389844    -0.2697985     0.4184433
O           3.8513331     0.0913001    -0.7506588
C           4.9052270     0.8845469    -0.4124027
H           5.4775092     1.2773189    -1.2388401
O           0.7854523     0.3053413    -0.8481175
16
261_C6H7NO2_0-1-11-12 (-45,) energy =    -438.0317091
C           0.9813251    -0.8302498    -0.4638725
N           2.0920898    -1.0562036     0.3409194
H           2.1378809    -1.9273877     0.8514187
C          -0.0128485    -1.9825242    -0.4764629
H          -1.0064618    -1.5806672    -0.6822849
H          -0.0344412    -2.5428016     0.4646978
H           0.2453023    -2.6793360    -1.2829210
C           5.0297785     0.9690444     0.9212604
H           5.8221701     1.4687997     1.4607240
C           3.9604215     0.1912564     1.4758422
H           3.7646827    -0.0139745     2.5188311
C           3.2109746    -0.2267255     0.4143107
O           3.7356525     0.2360903    -0.7539981
C           4.8361958     0.9748724    -0.4251841
H           5.3457279     1.4415857    -1.2537277
O           0.8310975     0.1849283    -1.1153654
16
261_C6H7NO2_0-1-11-12 (-30,) energy =    -438.0308869
C           1.0130242    -0.8544489    -0.5780660
N           2.0689801    -0.9802664     0.3171312
H           2.0332530    -1.7403224     0.9814941
C          -0.0121269    -1.9754279    -0.4712268
H          -0.9849009    -1.5832165    -0.7733003
H          -0.0887827    -2.3996014     0.5359393
H           0.2564604    -2.7830408    -1.1626679
C           5.0686681     0.9357322     0.9167899
H           5.9003979     1.3639475     1.4585832
C           4.0213715     0.1133781     1.4505770
H           3.8870300    -0.2026462     2.4755533
C           3.2046175    -0.1762121     0.3934729
O           3.6625635     0.4009168    -0.7442606
C           4.7996302     1.0872930    -0.4067481
H           5.2668933     1.6288820    -1.2138431
O           0.9275636     0.0451798    -1.3911838
16
261_C6H7NO2_0-1-11-12 (-15,) energy =    -438.0303228
C           1.0488380    -0.9116686    -0.6510594
N           2.0461453    -0.9308750     0.3164594
H           1.9449950    -1.5904109     1.0747907
C          -0.0165641    -1.9805766    -0.4425745
H          -0.9607731    -1.6074787    -0.8436197
H          -0.1549724    -2.2604132     0.6074819
H           0.2556854    -2.8819921    -1.0044917
C           5.0879884     0.9107532     0.9163225
H           5.9506879     1.2835304     1.4506375
C           4.0703178     0.0363167     1.4246745
H           3.9968959    -0.3844372     2.4177599
C           3.1958976    -0.1483812     0.3886380
O           3.5890151     0.5372858    -0.7079003
C           4.7503828     1.1881645    -0.3697663
H           5.1783613     1.7967198    -1.1501580
O           1.0359694    -0.1425516    -1.5925709
16
261_C6H7NO2_0-1-11-12 (0,) energy =    -438.0300867
C           1.0875838    -0.9713341    -0.7002809
N           2.0193131    -0.8937504     0.3275591
H           1.8564676    -1.4654476     1.1443331
C          -0.0296866    -1.9710201    -0.4271022
H          -0.9273101    -1.6331838    -0.9481619
H          -0.2547090    -2.0934846     0.6379945
H           0.2482483    -2.9507278    -0.8340164
C           5.1048431     0.8746389     0.9154965
H           5.9966303     1.1971923     1.4345096
C           4.1164976    -0.0490520     1.3937680
H           4.1010393    -0.5677800     2.3421476
C           3.1879405    -0.1397059     0.3923554
O           3.5207481     0.6462606    -0.6541522
C           4.7018246     1.2658044    -0.3209781
H           5.0951916     1.9337806    -1.0702489
O           1.1628181    -0.3325208    -1.7319898
16
261_C6H7NO2_0-1-11-12 (15,) energy =    -438.0303175
C           1.3990108    -1.7250376     0.2505048
N           1.8593459    -0.4942008    -0.2015134
H           1.2452164     0.0415948    -0.7983282
C           0.0413328    -2.1091931    -0.3242950
H          -0.4615748    -2.7628335     0.3905718
H           0.1827574    -2.6708856    -1.2554808
H          -0.5995137    -1.2469681    -0.5392898
C           4.8447803     1.4707951     0.2751736
H           5.4960385     2.3334338     0.2555528
C           3.4770533     1.4141292    -0.1548555
H           2.8775435     2.2177686    -0.5591230
C           3.0780091     0.1242078     0.0659875
O           4.0811301    -0.6118479     0.5942044
C           5.1606325     0.2278817     0.7228304
H           6.0420454    -0.2210363     1.1519215
O           2.0255742    -2.4452997     1.0032977
16
261_C6H7NO2_0-1-11-12 (30,) energy =    -438.0308869
C           1.3631645    -1.6621082     0.3129776
N           1.8682033    -0.4954242    -0.2491943
H           1.3159552    -0.0405756    -0.9622690
C           0.0631076    -2.1320709    -0.3257174
H          -0.5133732    -2.6754931     0.4250991
H           0.2884415    -2.8245271    -1.1455953
H          -0.5444088    -1.3136201    -0.7272737
C           4.8462502     1.4612806     0.3264218
H           5.4887683     2.3292749     0.3758134
C           3.4612119     1.4316766    -0.0461611
H           2.8346414     2.2666035    -0.3268786
C           3.0819303     0.1217819     0.0473305
O           4.1183021    -0.6547714     0.4474904
C           5.1900947     0.1806322     0.6244391
H           6.0919747    -0.2957571     0.9747552
O           1.9183789    -2.2696057     1.2076725
16
261_C6H7NO2_0-1-11-12 (45,) energy =    -438.0317091
C           1.2993876    -1.5637688     0.3429017
N           1.8525560    -0.4797780    -0.3290469
H           1.3924803    -0.1586574    -1.1698089
C           0.0621261    -2.1384706    -0.3317675
H          -0.5667269    -2.5990331     0.4321309
H           0.3618118    -2.9193686    -1.0409588
H          -0.5190192    -1.3869178    -0.8772966
C           4.8226964     1.4580685     0.3719903
H           5.4570405     2.3236360     0.5026078
C           3.4258883     1.4482328     0.0481533
H           2.7777388     2.2990815    -0.1074683
C           3.0618537     0.1336452    -0.0024991
O           4.1281017    -0.6691672     0.2677588
C           5.1900911     0.1553471     0.5074858
H           6.1108709    -0.3400492     0.7733356
O           1.7751757    -2.0237510     1.3625285
16
261_C6H7NO2_0-1-11-12 (60,) energy =    -438.0324725
C           1.2698237    -1.4713906     0.3731908
N           1.8720041    -0.4866398    -0.4024311
H           1.5116393    -0.3285003    -1.3346977
C           0.0820712    -2.1472327    -0.2954392
H          -0.5904747    -2.5164813     0.4806052
H           0.4317374    -3.0067588    -0.8799605
H          -0.4672780    -1.4785348    -0.9670259
C           4.7995606     1.4709244     0.4327701
H           5.4097395     2.3362057     0.6509993
C           3.3958059     1.4476682     0.1464702
H           2.7143377     2.2856861     0.1094630
C           3.0693372     0.1391148    -0.0531361
O           4.1758687    -0.6529735     0.0894456
C           5.2129445     0.1742248     0.3969701
H           6.1611312    -0.3112529     0.5702408
O           1.6719639    -1.7715423     1.4803203
16
261_C6H7NO2_0-1-11-12 (75,) energy =    -438.0328864
C           1.2217352    -1.4065691     0.3758810
N           1.9065991    -0.5417683    -0.4717750
H           1.6336351    -0.5170485    -1.4465224
C           0.0611953    -2.1342769    -0.2857781
H          -0.6650556    -2.4040570     0.4826664
H           0.4259467    -3.0585892    -0.7499425
H          -0.4303143    -1.5348298    -1.0596626
C           4.7746839     1.4463452     0.4940438
H           5.3545183     2.3089603     0.7912484
C           3.3673163     1.3932799     0.2341140
H           2.6507286     2.1996528     0.2984899
C           3.0869536     0.1024721    -0.0994118
O           4.2321154    -0.6531743    -0.0670696
C           5.2408675     0.1811083     0.3021931
H           6.2162398    -0.2733342     0.3881835
O           1.5372840    -1.5704182     1.5381231
16
261_C6H7NO2_0-1-11-12 (90,) energy =    -438.0330198
C           1.1680876    -1.3382045     0.3712588
N           1.9431708    -0.6008826    -0.5197481
H           1.7569577    -0.7095078    -1.5092648
C           0.0409653    -2.1183359    -0.2887774
H          -0.7504980    -2.2771756     0.4454313
H           0.4134030    -3.0997146    -0.6067497
H          -0.3705736    -1.6085948    -1.1664975
C           4.7509190     1.4227270     0.5453575
H           5.3010805     2.2769899     0.9144748
C           3.3392866     1.3284989     0.3230664
H           2.5896124     2.0882872     0.4909862
C           3.1060233     0.0688426    -0.1387685
O           4.2857793    -0.6301012    -0.2218888
C           5.2691081     0.2127321     0.1963013
H           6.2693457    -0.1930862     0.1850215
O           1.3825252    -1.3594869     1.5671220
16
261_C6H7NO2_0-1-11-12 (105,) energy =    -438.0332553
C           1.1136085    -1.2504346     0.3666731
N           1.9764787    -0.6468130    -0.5452901
H           1.8887176    -0.9114372    -1.5186940
C           0.0406750    -2.1133333    -0.2804815
H          -0.8222706    -2.1569940     0.3860009
H           0.4224325    -3.1332024    -0.4113248
H          -0.2723204    -1.7371773    -1.2602529
C           4.7526181     1.3802479     0.5852939
H           5.2876472     2.2132203     1.0196071
C           3.3347636     1.2524483     0.4203184
H           2.5667271     1.9555642     0.7072476
C           3.1282521     0.0431870    -0.1693784
O           4.3247296    -0.5949362    -0.3815261
C           5.2995850     0.2433124     0.0750709
H           6.3125287    -0.1098262    -0.0437533
O           1.2121404    -1.0986058     1.5683046
16
261_C6H7NO2_0-1-11-12 (120,) energy =    -438.0340021
C           1.0596966    -1.1476187     0.3274297
N           2.0075247    -0.6630037    -0.5708748
H           2.0258816    -1.0697369    -1.4975980
C           0.0606637    -2.1127937    -0.2920246
H          -0.8761313    -2.0525115     0.2646245
H           0.4423279    -3.1373887    -0.2053846
H          -0.1297290    -1.9064642    -1.3505049
C           4.7574551     1.3490687     0.6389783
H           5.2851172     2.1488407     1.1397481
C           3.3361154     1.1842072     0.5354794
H           2.5608998     1.8119273     0.9477550
C           3.1440192     0.0462692    -0.1860985
O           4.3441397    -0.5157953    -0.5314574
C           5.3174027     0.3073219    -0.0318250
H           6.3322286     0.0165875    -0.2548676
O           1.0316424    -0.8185685     1.4974869
16
261_C6H7NO2_0-1-11-12 (135,) energy =    -438.0353079
C           1.0049419    -1.0687137     0.3007416
N           2.0323216    -0.6998931    -0.5592845
H           2.1292219    -1.2075076    -1.4292497
C           0.0494353    -2.0992767    -0.2795927
H          -0.9417998    -1.9381177     0.1482498
H           0.3815677    -3.1046981     0.0060761
H          -0.0143252    -2.0558059    -1.3718583
C           4.7570042     1.3277206     0.6757705
H           5.2824513     2.1022627     1.2170408
C           3.3382525     1.1069739     0.6494156
H           2.5663577     1.6505736     1.1705850
C           3.1503307     0.0327100    -0.1661072
O           4.3423750    -0.4386348    -0.6376276
C           5.3162735     0.3809879    -0.1221243
H           6.3240518     0.1562898    -0.4340404
O           0.8801836    -0.5965661     1.4158997
16
261_C6H7NO2_0-1-11-12 (150,) energy =    -438.0367795
C           0.8888270    -1.1167885     0.3351815
N           1.9555178    -0.7952063    -0.4865397
H           2.0820896    -1.3115905    -1.3465937
C          -0.0902656    -2.1188813    -0.2547621
H          -1.0713225    -1.6425299    -0.3484935
H          -0.1988605    -2.9531361     0.4447718
H           0.2067881    -2.5100421    -1.2327541
C           4.6244103     1.3030371     0.7475492
H           5.1434703     2.0518403     1.3297504
C           3.2304481     0.9645432     0.8306094
H           2.4766092     1.3726022     1.4836464
C           3.0431097    -0.0209623    -0.0920171
O           4.2084803    -0.3287350    -0.7292335
C           5.1693707     0.5059650    -0.2072740
H           6.1545055     0.3997599    -0.6328957
O           0.7285696    -0.6079470     1.4318132
16
261_C6H7NO2_0-1-11-12 (165,) energy =    -438.0378807
C           0.8649481    -1.0866931     0.3169501
N           2.0087266    -0.8883132    -0.4307160
H           2.1632093    -1.4462569    -1.2593544
C          -0.1112398    -2.0947980    -0.2667264
H          -1.0580506    -1.5881401    -0.4790178
H          -0.3140896    -2.8617817     0.4867334
H           0.2425037    -2.5797787    -1.1818775
C           4.6203049     1.3060533     0.7537875
H           5.1306265     2.0586861     1.3388369
C           3.2551420     0.8822234     0.9048958
H           2.5176654     1.2180559     1.6144929
C           3.0705428    -0.0744596    -0.0494467
O           4.2064123    -0.2805318    -0.7720394
C           5.1507786     0.5850510    -0.2667808
H           6.1140560     0.5495606    -0.7499863
O           0.6465143    -0.4827154     1.3551441
16
261_C6H7NO2_0-1-11-12 (180,) energy =    -438.0382851
C           0.8598288    -1.0656441     0.2949395
N           2.0689748    -0.9881967    -0.3648073
H           2.2403794    -1.5784942    -1.1671488
C          -0.1220403    -2.0687690    -0.2875820
H          -1.0181573    -1.5341428    -0.6185694
H          -0.4284655    -2.7598326     0.5033056
H           0.2761472    -2.6449460    -1.1286000
C           4.6319635     1.3045058     0.7360279
H           5.1380133     2.0661979     1.3130354
C           3.3060587     0.7971130     0.9624911
H           2.5977295     1.0713417     1.7259434
C           3.1106740    -0.1367009    -0.0125560
O           4.2014244    -0.2477198    -0.8199003
C           5.1312795     0.6498692    -0.3430981
H           6.0627054     0.6804773    -0.8854013
O           0.5986572    -0.3769389     1.2690234
