11
165_C3H6O2_7-0-1-2 (-165,) energy =    -268.3873600
O           1.2459833    -0.7686840    -0.4333033
C           2.4730693    -1.3363072    -0.3416029
C           3.5310633    -0.2932222    -0.0688616
H           3.4921576    -0.0248046     0.9932677
H           3.3520735     0.6168731    -0.6476608
H           4.5170727    -0.7021299    -0.2942312
O           2.6608589    -2.5314304    -0.3957368
C           0.1404546    -1.6827015    -0.3541486
H          -0.7555288    -1.0613216    -0.3728422
H           0.1890604    -2.2600423     0.5734267
H           0.1442011    -2.3739640    -1.2011203
11
165_C3H6O2_7-0-1-2 (-150,) energy =    -268.3838223
O           1.2665263    -0.7854993    -0.6169287
C           2.4995246    -1.3382517    -0.4723067
C           3.5131775    -0.3002234    -0.0528913
H           3.3768874    -0.1098755     1.0181705
H           3.3624542     0.6467120    -0.5784933
H           4.5239352    -0.6751481    -0.2210083
O           2.7092065    -2.5275389    -0.5496340
C           0.1633454    -1.6649972    -0.3472438
H          -0.7302552    -1.0423633    -0.4046047
H           0.2621174    -2.0993648     0.6522824
H           0.1115393    -2.4727033    -1.0822047
11
165_C3H6O2_7-0-1-2 (-135,) energy =    -268.3786802
O           1.2642465    -0.7974022    -0.7270067
C           2.5156019    -1.3347162    -0.6174442
C           3.4859833    -0.3426507    -0.0229633
H           3.2711548    -0.2698042     1.0499666
H           3.3542343     0.6554075    -0.4507101
H           4.5121373    -0.6867248    -0.1611604
O           2.7632968    -2.4942521    -0.8509401
C           0.1856596    -1.6402390    -0.2963188
H          -0.7327923    -1.1060409    -0.5431605
H           0.2440303    -1.7959653     0.7870060
H           0.2101145    -2.6066593    -0.8063516
11
165_C3H6O2_7-0-1-2 (-120,) energy =    -268.3733806
O           1.2569682    -0.8170307    -0.8489360
C           2.5290326    -1.3240279    -0.7365571
C           3.4430839    -0.3793826     0.0048917
H           3.1370056    -0.3722363     1.0582712
H           3.3421127     0.6448022    -0.3669177
H           4.4792403    -0.7129542    -0.0696220
O           2.8271356    -2.4336391    -1.1046264
C           0.2196923    -1.6054839    -0.2536978
H          -0.7260977    -1.1756637    -0.5874092
H           0.2807180    -1.5468034     0.8403897
H           0.2866446    -2.6498302    -0.5733208
11
165_C3H6O2_7-0-1-2 (-105,) energy =    -268.3691600
O           1.2848057    -0.8806493    -0.9708399
C           2.5777983    -1.3374954    -0.8072071
C           3.4057919    -0.4170824     0.0554256
H           2.9783856    -0.3989031     1.0654469
H           3.3631030     0.6081182    -0.3268557
H           4.4399949    -0.7616262     0.1000908
O           2.9551337    -2.3782958    -1.2812507
C           0.2903101    -1.5790964    -0.2180611
H          -0.6738713    -1.1721743    -0.5274009
H           0.4234622    -1.4110211     0.8594874
H           0.3197432    -2.6541934    -0.4283267
11
165_C3H6O2_7-0-1-2 (-90,) energy =    -268.3671342
O           1.2679849    -0.9698692    -1.0858935
C           2.5847880    -1.3519289    -0.9015256
C           3.3320065    -0.4608927     0.0628867
H           2.8126296    -0.4167460     1.0268787
H           3.3558541     0.5608686    -0.3327728
H           4.3500962    -0.8256653     0.2060542
O           3.0635732    -2.2749094    -1.5065844
C           0.3210181    -1.5562235    -0.1923143
H          -0.6565609    -1.1653674    -0.4796978
H           0.5235014    -1.2802321     0.8521771
H           0.3180568    -2.6489721    -0.2857975
11
165_C3H6O2_7-0-1-2 (-75,) energy =    -268.3673466
O           1.2936395    -1.0807886    -1.1436652
C           2.6286228    -1.3605587    -0.9326464
C           3.2916260    -0.4982118     0.1198881
H           2.7283831    -0.4843414     1.0582856
H           3.3265362     0.5331756    -0.2504334
H           4.3072591    -0.8509313     0.3042165
O           3.2110022    -2.1419491    -1.6381131
C           0.3619659    -1.5250944    -0.1577624
H          -0.6203274    -1.1855703    -0.4908405
H           0.5681611    -1.0981648     0.8329546
H           0.3610707    -2.6196491    -0.0885097
11
165_C3H6O2_7-0-1-2 (-60,) energy =    -268.3691391
O           1.3198504    -1.2123434    -1.2279644
C           2.6561282    -1.4148264    -0.9778838
C           3.2482453    -0.5742723     0.1368986
H           2.8451076    -0.8505225     1.1176141
H           3.0042140     0.4800507    -0.0326294
H           4.3301812    -0.7096523     0.1497475
O           3.3053343    -2.1150596    -1.7112425
C           0.3849148    -1.4577912    -0.1761519
H          -0.6031792    -1.2823775    -0.6048986
H           0.5261673    -0.7808855     0.6763055
H           0.4469938    -2.4971991     0.1673384
11
165_C3H6O2_7-0-1-2 (-45,) energy =    -268.3718690
O           1.3004660    -1.3038162    -1.2674073
C           2.6441615    -1.4183545    -1.0276007
C           3.1888710    -0.6338965     0.1519466
H           2.8634610    -1.0555544     1.1098225
H           2.8350635     0.4020310     0.1101502
H           4.2781624    -0.6567389     0.1113204
O           3.3366357    -2.0124612    -1.8142014
C           0.3903075    -1.3894329    -0.1687098
H          -0.6086322    -1.3603991    -0.6069354
H           0.4969856    -0.5485602     0.5277957
H           0.5153144    -2.3333489     0.3744775
11
165_C3H6O2_7-0-1-2 (-30,) energy =    -268.3742176
O           1.3021920    -1.4297287    -1.2722294
C           2.6520887    -1.4225679    -1.0666561
C           3.1629069    -0.6844500     0.1574869
H           2.8522364    -1.1689290     1.0899746
H           2.7769746     0.3410450     0.1740591
H           4.2519687    -0.6647903     0.1145926
O           3.3728973    -1.9084347    -1.9020497
C           0.4081229    -1.3699035    -0.1593711
H          -0.5954689    -1.4326012    -0.5832056
H           0.5003862    -0.4306102     0.3984496
H           0.5627668    -2.2158621     0.5202866
11
165_C3H6O2_7-0-1-2 (-15,) energy =    -268.3756453
O           1.3294390    -1.5179247    -1.2559666
C           2.6756435    -1.3834424    -1.0876959
C           3.1652253    -0.7094314     0.1810549
H           2.8610504    -1.2551051     1.0809356
H           2.7623181     0.3068097     0.2603214
H           4.2534692    -0.6630194     0.1409992
O           3.4092747    -1.7525425    -1.9710290
C           0.4322656    -1.3391731    -0.1592003
H          -0.5661344    -1.5078373    -0.5661016
H           0.4817155    -0.3254246     0.2542754
H           0.6207177    -2.0682123     0.6372676
11
165_C3H6O2_7-0-1-2 (0,) energy =    -268.3760931
O           1.3406813    -1.6138318    -1.2204306
C           2.6753785    -1.3677592    -1.0946186
C           3.1662544    -0.7537156     0.2035614
H           2.9313787    -1.3909546     1.0633696
H           2.7055695     0.2241356     0.3833092
H           4.2470590    -0.6327108     0.1312446
O           3.4027051    -1.6465226    -2.0156401
C           0.4295207    -1.3046906    -0.1653981
H          -0.5548163    -1.5996346    -0.5326783
H           0.4180316    -0.2329515     0.0632529
H           0.6535718    -1.8699631     0.7463580
11
165_C3H6O2_7-0-1-2 (15,) energy =    -268.3756453
O           1.3116317    -1.8109212     0.6016332
C           2.6603585    -1.6352694     0.5080924
C           3.1716642    -0.6050822    -0.4823575
H           2.7673978     0.3874678    -0.2526262
H           2.8859505    -0.8464966    -1.5119955
H           4.2588302    -0.5765425    -0.4096334
O           3.3783851    -2.2604614     1.2485650
C           0.4346326    -1.3006811    -0.4035017
H          -0.5707199    -1.5833299    -0.0869658
H           0.6400481    -1.7498750    -1.3819713
H           0.4889041    -0.2090469    -0.4840190
11
165_C3H6O2_7-0-1-2 (30,) energy =    -268.3742176
O           1.2838321    -1.7319247     0.6437301
C           2.6373136    -1.6659522     0.4755992
C           3.1688334    -0.5885571    -0.4522940
H           2.7803391     0.3934574    -0.1597566
H           2.8770601    -0.7616934    -1.4942448
H           4.2568408    -0.5863479    -0.3850851
O           3.3437518    -2.3874582     1.1343010
C           0.4105793    -1.3298999    -0.4132457
H          -0.6005850    -1.5169168    -0.0480955
H           0.5803419    -1.9261778    -1.3171972
H           0.5105718    -0.2648282    -0.6531872
11
165_C3H6O2_7-0-1-2 (45,) energy =    -268.3718690
O           1.2818355    -1.6106316     0.6778503
C           2.6301067    -1.6499030     0.4395935
C           3.1945443    -0.5422393    -0.4309845
H           2.8370468     0.4316460    -0.0791102
H           2.8883288    -0.6477461    -1.4780344
H           4.2829455    -0.5797732    -0.3790057
O           3.3094393    -2.4592998     1.0180465
C           0.3926483    -1.3513013    -0.4107032
H          -0.6143972    -1.4554784    -0.0035525
H           0.5305061    -2.0826825    -1.2155219
H           0.5099307    -0.3372500    -0.8125888
11
165_C3H6O2_7-0-1-2 (60,) energy =    -268.3691391
O           1.3016921    -1.5115196     0.6688338
C           2.6429915    -1.6312859     0.3936066
C           3.2534552    -0.4903172    -0.3972147
H           3.0032708     0.4614394     0.0838831
H           2.8695366    -0.4502079    -1.4227072
H           4.3358259    -0.6184543    -0.4308692
O           3.2803645    -2.5251489     0.8879492
C           0.3873132    -1.4186166    -0.4247562
H          -0.6091310    -1.3806316     0.0186168
H           0.4587910    -2.3021075    -1.0701576
H           0.5425529    -0.5127011    -1.0248020
11
165_C3H6O2_7-0-1-2 (75,) energy =    -268.3673466
O           1.2766862    -1.3603309     0.6286250
C           2.6161820    -1.5656493     0.3667544
C           3.2962916    -0.4233117    -0.3568201
H           3.3213067     0.4439987     0.3134512
H           2.7506723    -0.1196909    -1.2557855
H           4.3162041    -0.7052849    -0.6217131
O           3.1874951    -2.5279485     0.8083443
C           0.3649056    -1.4769272    -0.4633864
H          -0.6244191    -1.2533762    -0.0604233
H           0.3684460    -2.4970736    -0.8660471
H           0.5883810    -0.7665195    -1.2706566
11
165_C3H6O2_7-0-1-2 (90,) energy =    -268.3671342
O           1.2517995    -1.2369402     0.6073137
C           2.5729130    -1.5477304     0.3389846
C           3.3354909    -0.4054627    -0.2903577
H           3.3489988     0.4449262     0.4008496
H           2.8341216    -0.0652925    -1.2035361
H           4.3571238    -0.7115755    -0.5197566
O           3.0429359    -2.6135445     0.6395560
C           0.3234077    -1.5170531    -0.4408595
H          -0.6604955    -1.2306161    -0.0654842
H           0.3218320    -2.5855435    -0.6881914
H           0.5446108    -0.9337049    -1.3457944
11
165_C3H6O2_7-0-1-2 (105,) energy =    -268.3691600
O           1.2705147    -1.1167010     0.5256269
C           2.5676482    -1.5049570     0.2535687
C           3.4089977    -0.3662969    -0.2684016
H           3.3562215     0.4916821     0.4098935
H           3.0005186    -0.0369513    -1.2316388
H           4.4448394    -0.6835173    -0.3975693
O           2.9390294    -2.6422585     0.3913581
C           0.2922890    -1.5466448    -0.4239775
H          -0.6786761    -1.2517168    -0.0225215
H           0.3208653    -2.6343686    -0.5541769
H           0.4451016    -1.0555969    -1.3948585
11
165_C3H6O2_7-0-1-2 (120,) energy =    -268.3733806
O           1.2447808    -1.0185778     0.4287116
C           2.5201746    -1.4702580     0.1895912
C           3.4452292    -0.3460869    -0.2080319
H           3.3343808     0.5143239     0.4588998
H           3.1588990    -0.0142659    -1.2136427
H           4.4807619    -0.6895415    -0.2204120
O           2.8145183    -2.6401870     0.2039153
C           0.2210926    -1.5825025    -0.3995152
H          -0.7320063    -1.2733419     0.0325144
H           0.2850471    -2.6747270    -0.4155195
H           0.3024151    -1.1902353    -1.4211354
11
165_C3H6O2_7-0-1-2 (135,) energy =    -268.3786802
O           1.2542837    -0.9624093     0.3188947
C           2.5090061    -1.4437403     0.0727382
C           3.4874951    -0.3198385    -0.1694303
H           3.3448896     0.4986057     0.5420876
H           3.2925896     0.0802186    -1.1717291
H           4.5118660    -0.6928458    -0.1246270
O           2.7556116    -2.6196155    -0.0572622
C           0.1863668    -1.6285798    -0.3702977
H          -0.7380726    -1.1934737     0.0117322
H           0.2040552    -2.7051159    -0.1819981
H           0.2654366    -1.4436042    -1.4476938
11
165_C3H6O2_7-0-1-2 (150,) energy =    -268.3838223
O           1.2585886    -0.9172230     0.2178811
C           2.4956578    -1.4024005    -0.0667206
C           3.5140016    -0.2887585    -0.1273973
H           3.3507524     0.4509844     0.6611404
H           3.3972358     0.2223015    -1.0902910
H           4.5225070    -0.7002820    -0.0639283
O           2.7072657    -2.5584200    -0.3551494
C           0.1631752    -1.6677385    -0.3298875
H          -0.7331245    -1.0902509    -0.1004532
H           0.0999404    -2.6622303     0.1198101
H           0.2818814    -1.7738082    -1.4125425
11
165_C3H6O2_7-0-1-2 (165,) energy =    -268.3873600
O           1.2414456    -0.8446616     0.0479693
C           2.4716563    -1.3602711    -0.1909529
C           3.5315550    -0.2870634    -0.1097167
H           3.3391803     0.4012996     0.7176101
H           3.5116990     0.2952896    -1.0382375
H           4.5143561    -0.7484470    -0.0027736
O           2.6618254    -2.5146560    -0.5035940
C           0.1402168    -1.6866345    -0.3292049
H          -0.7577343    -1.0984195    -0.1370174
H           0.1300729    -2.6049455     0.2639403
H           0.2078440    -1.9507555    -1.3883306
11
165_C3H6O2_7-0-1-2 (180,) energy =    -268.3884911
O           1.2284071    -0.7644182    -0.1870372
C           2.4590323    -1.3247511    -0.2630894
C           3.5357652    -0.2798095    -0.0851755
H           3.4252164     0.2138789     0.8858955
H           3.4429219     0.4923413    -0.8559289
H           4.5155092    -0.7538726    -0.1509274
O           2.6438822    -2.5070616    -0.4493333
C           0.1294901    -1.6760949    -0.3439684
H          -0.7710076    -1.0672108    -0.2568877
H           0.1510340    -2.4434199     0.4346630
H           0.1700922    -2.1640808    -1.3215851
