21
211_C7H10O2S2_1-0-17-18 (-165,) energy =   -1219.5108166
S           2.5393453    -1.6915221    -0.1216979
C           3.9604242    -0.7898037     0.6287683
H           3.8615920     0.2360474     0.2569510
C           5.2376457    -1.4187853     0.0598490
H           5.2540893    -1.3700616    -1.0311084
H           5.3211705    -2.4665787     0.3655880
H           6.1044954    -0.8759760     0.4516894
C           3.8983511    -0.8397630     2.1556750
H           2.9853285    -0.3838144     2.5491647
H           4.7564030    -0.2983781     2.5697167
H           3.9405911    -1.8757622     2.5040517
O           2.3916542    -2.9999286     0.5390906
O           2.7054693    -1.6307305    -1.5835311
C          -0.3287748     1.0726920     0.7335498
H          -0.6048444     2.0904967     0.9855252
C           1.0187577     0.6239977     0.6156704
H           1.8774474     1.2720173     0.7459123
C           1.1022572    -0.7131363     0.3140315
S          -0.4743355    -1.4335909     0.1309614
C          -1.2363508     0.0771709     0.4913088
H          -2.3165495     0.1375460     0.5169238
21
211_C7H10O2S2_1-0-17-18 (-150,) energy =   -1219.5126830
S           2.5490810    -1.6293408    -0.2004019
C           3.9679385    -0.8078041     0.6404457
H           3.9048171     0.2375208     0.3174401
C           5.2494352    -1.4407105     0.0868251
H           5.3045883    -1.3430069    -0.9997933
H           5.2983961    -2.5029936     0.3465406
H           6.1151006    -0.9375816     0.5308767
C           3.8462597    -0.9249518     2.1595429
H           2.9305368    -0.4594462     2.5357149
H           4.7006709    -0.4257305     2.6301501
H           3.8486303    -1.9760110     2.4629510
O           2.3635192    -2.9806573     0.3577363
O           2.7462377    -1.4553859    -1.6490526
C          -0.3419337     1.1007861     0.6462962
H          -0.6419766     2.1330687     0.7879509
C           1.0027603     0.6909575     0.4178280
H           1.8358600     1.3801122     0.3376868
C           1.1212259    -0.6719837     0.2968866
S          -0.4218753    -1.4707216     0.4171212
C          -1.2158918     0.0459851     0.6611511
H          -2.2869609     0.0703589     0.8145192
21
211_C7H10O2S2_1-0-17-18 (-135,) energy =   -1219.5145478
S           2.5728443    -1.5725456    -0.2494160
C           3.9761807    -0.8125976     0.6716344
H           3.9268973     0.2485080     0.4008396
C           5.2693235    -1.4293231     0.1288481
H           5.3597064    -1.2801828    -0.9496284
H           5.3015559    -2.5034234     0.3381567
H           6.1252192    -0.9571532     0.6231143
C           3.8031615    -1.0002317     2.1783597
H           2.8786499    -0.5432846     2.5441285
H           4.6439482    -0.5296950     2.7002454
H           3.7883044    -2.0640026     2.4333689
O           2.3617689    -2.9496476     0.2321069
O           2.8072082    -1.3125849    -1.6793609
C          -0.3625656     1.1102998     0.5665443
H          -0.7043151     2.1387315     0.6029732
C           0.9643855     0.7266409     0.2228929
H           1.7422715     1.4261616    -0.0627501
C           1.1435473    -0.6342599     0.2711041
S          -0.3228991    -1.4707203     0.6952846
C          -1.1649798     0.0323376     0.8377682
H          -2.2097677     0.0359132     1.1204064
21
211_C7H10O2S2_1-0-17-18 (-120,) energy =   -1219.5160890
S           2.6067784    -1.5137390    -0.2918177
C           3.9886672    -0.8152793     0.7080331
H           3.9542003     0.2579819     0.4872542
C           5.2932625    -1.4186480     0.1781152
H           5.4183688    -1.2215569    -0.8892588
H           5.3110140    -2.5013959     0.3390221
H           6.1373999    -0.9769161     0.7187129
C           3.7658733    -1.0720580     2.1977049
H           2.8360697    -0.6201463     2.5566161
H           4.5950098    -0.6375544     2.7672469
H           3.7311332    -2.1464346     2.4015102
O           2.3833561    -2.9129148     0.1154801
O           2.8769606    -1.1699574    -1.6972395
C          -0.3786415     1.1145841     0.4894034
H          -0.7687174     2.1245954     0.4301059
C           0.9164752     0.7368158     0.0359797
H           1.6219882     1.4134905    -0.4333883
C           1.1670211    -0.5987726     0.2330478
S          -0.1917605    -1.4238722     0.9408863
C          -1.0860344     0.0548133     0.9966946
H          -2.0912508     0.0586830     1.3981103
21
211_C7H10O2S2_1-0-17-18 (-105,) energy =   -1219.5170664
S           2.6286333    -1.4578115    -0.3246165
C           3.9914541    -0.8250868     0.7451031
H           3.9611725     0.2592410     0.5871059
C           5.3055789    -1.3995533     0.2061744
H           5.4522774    -1.1396831    -0.8448950
H           5.3187593    -2.4899259     0.3030976
H           6.1393757    -0.9924932     0.7885376
C           3.7422898    -1.1689814     2.2125951
H           2.8091964    -0.7349708     2.5844415
H           4.5637544    -0.7730421     2.8200921
H           3.7008272    -2.2534607     2.3517093
O           2.4014332    -2.8779083    -0.0022778
O           2.9274397    -1.0234634    -1.6992644
C          -0.4190710     1.1066827     0.3966257
H          -0.8677974     2.0811226     0.2389451
C           0.8374494     0.7146534    -0.1444465
H           1.4564976     1.3364404    -0.7812544
C           1.1756418    -0.5697503     0.2032494
S          -0.0531773    -1.3314327     1.1726656
C          -1.0102296     0.1082142     1.1277613
H          -1.9661118     0.1325295     1.6351158
21
211_C7H10O2S2_1-0-17-18 (-90,) energy =   -1219.5171888
S           2.6447498    -1.4070607    -0.3333069
C           3.9938827    -0.8441906     0.7937532
H           3.9592682     0.2484579     0.7133280
C           5.3143557    -1.3724798     0.2221086
H           5.4654252    -1.0377627    -0.8068172
H           5.3330412    -2.4668928     0.2414170
H           6.1422889    -1.0034058     0.8372010
C           3.7455584    -1.2942835     2.2322241
H           2.8166666    -0.8852182     2.6400465
H           4.5708670    -0.9467355     2.8637287
H           3.7011685    -2.3859024     2.2914892
O           2.4207590    -2.8433841    -0.0929065
O           2.9629164    -0.8946273    -1.6767168
C          -0.4758619     1.0863376     0.2856847
H          -0.9887985     2.0045457     0.0220402
C           0.7440226     0.6584647    -0.3098977
H           1.2758314     1.1903409    -1.0901096
C           1.1778682    -0.5420075     0.1949910
S           0.0881382    -1.1781949     1.3960608
C          -0.9420543     0.2008769     1.2227900
H          -1.8450666     0.2724259     1.8153803
21
211_C7H10O2S2_1-0-17-18 (-75,) energy =   -1219.5162504
S           2.6159480    -1.7338348     1.2082726
C           3.9803833    -0.9548691     0.2357094
H           3.5137562    -0.7175747    -0.7273957
C           5.0648914    -2.0218944     0.0442766
H           4.6650815    -2.9155099    -0.4399720
H           5.4985882    -2.3095433     1.0075302
H           5.8631644    -1.6084009    -0.5816172
C           4.5080940     0.3070069     0.9158513
H           3.7451955     1.0863340     0.9979656
H           5.3350613     0.7122719     0.3220151
H           4.8809261     0.0761178     1.9179000
O           3.0260401    -1.7475429     2.6229923
O           2.2358788    -2.9762667     0.5145017
C          -0.8789098     0.0933292     0.3424704
H          -1.8224693     0.0581998    -0.1905471
C           0.1099372    -0.9286030     0.2734340
H           0.0287911    -1.8400320    -0.3065034
C           1.2061554    -0.6492413     1.0504548
S           1.0418416     0.8741586     1.8826773
C          -0.5121043     1.1271500     1.1632570
H          -1.0705508     2.0239873     1.3987523
21
211_C7H10O2S2_1-0-17-18 (-60,) energy =   -1219.5145088
S           2.6138905    -1.7243987     1.1483614
C           4.0109904    -0.9104134     0.2527547
H           3.5662986    -0.5820464    -0.6939421
C           5.0638320    -1.9936940    -0.0130908
H           4.6429015    -2.8322148    -0.5718076
H           5.4759685    -2.3718864     0.9281341
H           5.8826422    -1.5563978    -0.5945604
C           4.5757459     0.2724129     1.0380080
H           3.8489837     1.0795802     1.1645847
H           5.4322344     0.6834706     0.4918436
H           4.9147066    -0.0497273     2.0264867
O           2.9895925    -1.8081792     2.5700919
O           2.2442545    -2.9377354     0.3992886
C          -0.9584840     0.0043762     0.4184050
H          -1.9565739    -0.1100689     0.0106012
C           0.0257768    -1.0248303     0.4054524
H          -0.1093595    -2.0149894    -0.0121948
C           1.2034521    -0.6333067     0.9903962
S           1.1251070     1.0144048     1.5585824
C          -0.5076405     1.1593778     0.9987507
H          -1.0382144     2.0927937     1.1356748
21
211_C7H10O2S2_1-0-17-18 (-45,) energy =   -1219.5124772
S           2.6174752    -1.6930385     1.1265257
C           4.0358669    -0.8479020     0.2914576
H           3.5976223    -0.4126960    -0.6143249
C           5.0492689    -1.9326280    -0.0914363
H           4.5968163    -2.6981711    -0.7250010
H           5.4574233    -2.4165001     0.8020568
H           5.8777299    -1.4662855    -0.6355081
C           4.6450091     0.2322083     1.1855901
H           3.9440538     1.0391093     1.4171146
H           5.5017978     0.6778490     0.6677435
H           4.9903435    -0.2013587     2.1277325
O           2.9505860    -1.8076828     2.5571198
O           2.2715545    -2.8979030     0.3532893
C          -1.0033702    -0.0246811     0.5009633
H          -2.0412247    -0.1873845     0.2326323
C          -0.0299765    -1.0626957     0.5691690
H          -0.2164557    -2.1066424     0.3485763
C           1.2079003    -0.6004894     0.9365952
S           1.2021264     1.1263238     1.1853228
C          -0.4854759     1.2063308     0.7980303
H          -0.9908780     2.1632363     0.8097713
21
211_C7H10O2S2_1-0-17-18 (-30,) energy =   -1219.5105957
S           2.6018456    -1.7145892     1.0571993
C           4.0369838    -0.8201874     0.3096811
H           3.6254319    -0.3385648    -0.5848993
C           5.0683363    -1.8776192    -0.1001445
H           4.6413742    -2.6071968    -0.7912341
H           5.4489196    -2.4103136     0.7775139
H           5.9118588    -1.3777084    -0.5883191
C           4.6110358     0.2113387     1.2824280
H           3.8861035     0.9774484     1.5717888
H           5.4570635     0.7170723     0.8036530
H           4.9637364    -0.2798672     2.1930086
O           2.8847702    -1.8900033     2.4925026
O           2.2948420    -2.8932854     0.2290351
C          -1.0526027    -0.0675068     0.5788576
H          -2.1144195    -0.2468705     0.4525357
C          -0.0844894    -1.1048340     0.7089306
H          -0.3051620    -2.1649874     0.6735708
C           1.1892512    -0.6208422     0.8615998
S           1.2219024     1.1230797     0.8220099
C          -0.4980700     1.1824225     0.6134142
H          -0.9920457     2.1412141     0.5253898
21
211_C7H10O2S2_1-0-17-18 (-15,) energy =   -1219.5092569
S           2.5893523    -1.7361741     0.9517190
C           4.0463544    -0.8024848     0.3062119
H           3.6714270    -0.2859859    -0.5852558
C           5.1016520    -1.8358643    -0.1041236
H           4.7100333    -2.5362885    -0.8445108
H           5.4469678    -2.4044563     0.7655234
H           5.9620185    -1.3104518    -0.5322751
C           4.5680823     0.1894058     1.3476934
H           3.8195491     0.9300041     1.6432945
H           5.4254954     0.7273324     0.9279946
H           4.8917402    -0.3407197     2.2473079
O           2.8163996    -1.9998860     2.3834211
O           2.3159191    -2.8648373     0.0460263
C          -1.0638731    -0.0328983     0.6965656
H          -2.1364559    -0.1886752     0.7265261
C          -0.1075564    -1.0764747     0.8598158
H          -0.3574761    -2.1200673     1.0117269
C           1.1846226    -0.6246335     0.7822859
S           1.2454886     1.0937681     0.4895645
C          -0.4854198     1.1883315     0.4845898
H          -0.9671085     2.1433952     0.3214257
21
211_C7H10O2S2_1-0-17-18 (0,) energy =   -1219.5090424
S           2.5882354    -1.7726990     0.8314920
C           4.0602526    -0.7960870     0.2985008
H           3.7243008    -0.2529339    -0.5930574
C           5.1518350    -1.7975199    -0.0951241
H           4.8094776    -2.4747570    -0.8801120
H           5.4614173    -2.3931774     0.7698176
H           6.0239502    -1.2436359    -0.4586693
C           4.5079022     0.1646935     1.4017215
H           3.7273933     0.8773644     1.6827259
H           5.3745292     0.7348965     1.0489936
H           4.7962549    -0.3936298     2.2964826
O           2.7494572    -2.1296820     2.2515782
O           2.3676459    -2.8411006    -0.1579271
C          -1.0383215     0.0106065     0.8151978
H          -2.1005290    -0.0992249     1.0029713
C          -0.0887337    -1.0345369     1.0061326
H          -0.3369402    -2.0310165     1.3531741
C           1.1896376    -0.6480572     0.6963136
S           1.2461534     1.0131783     0.1683004
C          -0.4685978     1.1704763     0.3664840
H          -0.9479004     2.1135608     0.1393839
21
211_C7H10O2S2_1-0-17-18 (15,) energy =   -1219.5102981
S           2.5597559    -1.8171280     0.6838418
C           4.0476441    -0.8070778     0.2792186
H           3.7617325    -0.2452666    -0.6184584
C           5.1783400    -1.7819060    -0.0680882
H           4.8984702    -2.4407543    -0.8925587
H           5.4383349    -2.3973747     0.7992802
H           6.0642073    -1.2066851    -0.3577087
C           4.4042083     0.1311818     1.4332846
H           3.5948341     0.8272788     1.6710122
H           5.2864275     0.7199242     1.1582964
H           4.6359012    -0.4452272     2.3333352
O           2.6529343    -2.2871296     2.0767194
O           2.3912832    -2.7989406    -0.4011154
C          -1.0001682     0.0780787     0.9396530
H          -2.0279386     0.0335421     1.2821595
C          -0.0539363    -0.9690444     1.1366342
H          -0.2635509    -1.8971457     1.6557239
C           1.1744559    -0.6748251     0.6039695
S           1.1963338     0.9101563    -0.1231714
C          -0.4720067     1.1538246     0.2797488
H          -0.9569296     2.0819380     0.0072854
21
211_C7H10O2S2_1-0-17-18 (30,) energy =   -1219.5124859
S           2.5479101    -1.8679122     0.5501481
C           4.0411076    -0.8279456     0.2654778
H           3.7976731    -0.2434042    -0.6301946
C           5.2060825    -1.7749214    -0.0417444
H           4.9847903    -2.4139523    -0.8992326
H           5.4248092    -2.4109147     0.8221954
H           6.0981470    -1.1795943    -0.2638851
C           4.3094704     0.0838097     1.4631058
H           3.4707151     0.7554673     1.6683453
H           5.1926802     0.6987349     1.2574991
H           4.5008671    -0.5120495     2.3601556
O           2.5961082    -2.4365161     1.9081495
O           2.4213389    -2.7630204    -0.6125470
C          -0.9345931     0.1191487     1.0434809
H          -1.9089989     0.1427903     1.5184550
C           0.0222446    -0.9169538     1.2480980
H          -0.1161573    -1.7670109     1.9057423
C           1.1705296    -0.7198022     0.5261658
S           1.1109456     0.7620765    -0.3914519
C          -0.4874777     1.0932588     0.1929034
H          -0.9963953     1.9933505    -0.1261288
21
211_C7H10O2S2_1-0-17-18 (45,) energy =   -1219.5147558
S           2.5289455    -1.8740097     0.4361924
C           4.0293812    -0.8188611     0.2745004
H           3.8319470    -0.2088212    -0.6152450
C           5.2188406    -1.7478275     0.0102517
H           5.0525102    -2.3647871    -0.8757374
H           5.3931130    -2.4054270     0.8680075
H           6.1172164    -1.1409955    -0.1457010
C           4.2142877     0.0601283     1.5111049
H           3.3588155     0.7217137     1.6777291
H           5.1049130     0.6848151     1.3807664
H           4.3513079    -0.5586698     2.4027854
O           2.5361352    -2.5349015     1.7528477
O           2.4368363    -2.6762487    -0.7950461
C          -0.8486123     0.2263701     1.1420301
H          -1.7517196     0.3327720     1.7325399
C           0.1179685    -0.8005232     1.3480091
H           0.0640287    -1.5637678     2.1150743
C           1.1618146    -0.7202810     0.4634943
S           0.9915287     0.6334803    -0.6225991
C          -0.5095057     1.0758501     0.1238982
H          -1.0506390     1.9406832    -0.2372488
21
211_C7H10O2S2_1-0-17-18 (60,) energy =   -1219.5165618
S           2.5226793    -1.8946418     0.3343157
C           4.0178656    -0.8193074     0.2851160
H           3.8446856    -0.1676276    -0.5795517
C           5.2283413    -1.7212255     0.0245202
H           5.1045216    -2.2968960    -0.8957623
H           5.3775974    -2.4172875     0.8562725
H           6.1247801    -1.0985398    -0.0676046
C           4.1410029     0.0014229     1.5681556
H           3.2677128     0.6402182     1.7321860
H           5.0243771     0.6461263     1.5014748
H           4.2562389    -0.6564498     2.4347067
O           2.5065350    -2.6334631     1.6087168
O           2.4655549    -2.6101841    -0.9510437
C          -0.7539560     0.3013014     1.2086859
H          -1.5703603     0.4989047     1.8943058
C           0.2361871    -0.7013299     1.4207540
H           0.2881083    -1.3593852     2.2798594
C           1.1493131    -0.7558034     0.3996562
S           0.8207138     0.4304433    -0.8349228
C          -0.5615928     0.9957688     0.0443282
H          -1.1567848     1.8048618    -0.3588448
21
211_C7H10O2S2_1-0-17-18 (75,) energy =   -1219.5175943
S           2.5190481    -1.8829918     0.2573214
C           4.0175047    -0.8097635     0.3044128
H           3.8618768    -0.1084683    -0.5239088
C           5.2320678    -1.6983839     0.0171629
H           5.1258009    -2.2207569    -0.9366121
H           5.3642875    -2.4407320     0.8108468
H           6.1309773    -1.0736340    -0.0227931
C           4.1153064    -0.0656631     1.6350703
H           3.2423949     0.5692686     1.8147528
H           5.0037188     0.5755273     1.6255158
H           4.2077221    -0.7729511     2.4646957
O           2.4857056    -2.6908063     1.4888674
O           2.4810420    -2.5161694    -1.0713017
C          -0.6722124     0.4003089     1.2298141
H          -1.4061161     0.6926301     1.9725495
C           0.3553684    -0.5588953     1.4600696
H           0.5128591    -1.0957735     2.3879655
C           1.1429858    -0.7540151     0.3540738
S           0.6358047     0.2278325    -0.9930435
C          -0.6369643     0.9139630    -0.0398638
H          -1.2978861     1.6491149    -0.4806582
21
211_C7H10O2S2_1-0-17-18 (90,) energy =   -1219.5176450
S           2.5130664    -1.8523757     0.1920673
C           4.0172666    -0.7939990     0.3340397
H           3.8805529    -0.0413119    -0.4513976
C           5.2297819    -1.6738697     0.0114337
H           5.1357766    -2.1341506    -0.9750588
H           5.3425391    -2.4658146     0.7587808
H           6.1340336    -1.0557264     0.0256470
C           4.1011535    -0.1357203     1.7096848
H           3.2324226     0.4968746     1.9151374
H           4.9953931     0.4959845     1.7521444
H           4.1757689    -0.8939382     2.4949606
O           2.4636234    -2.7289890     1.3747847
O           2.4910739    -2.4033713    -1.1737869
C          -0.6226109     0.4870386     1.2240813
H          -1.2832434     0.8631094     1.9973038
C           0.4595218    -0.4052707     1.4682760
H           0.7242363    -0.8120464     2.4372196
C           1.1345976    -0.7309431     0.3183580
S           0.4385203     0.0253616    -1.0874596
C          -0.7479447     0.8100266    -0.1023604
H          -1.4853645     1.4546059    -0.5632402
21
211_C7H10O2S2_1-0-17-18 (105,) energy =   -1219.5166645
S           2.5314940    -1.8315914     0.1710705
C           4.0446908    -0.8008553     0.4015224
H           3.9341324    -0.0070364    -0.3466011
C           5.2510048    -1.6815007     0.0570373
H           5.1676236    -2.0928592    -0.9517719
H           5.3406322    -2.5096348     0.7673075
H           6.1626408    -1.0769941     0.1152445
C           4.1144886    -0.2146426     1.8100018
H           3.2696032     0.4472851     2.0211018
H           5.0333100     0.3742757     1.9075087
H           4.1343296    -1.0119413     2.5590462
O           2.4570207    -2.7692559     1.3044990
O           2.5274894    -2.3127756    -1.2217709
C          -0.5774034     0.5500406     1.2134255
H          -1.1799181     1.0072576     1.9904194
C           0.5692867    -0.2533116     1.4676435
H           0.9322941    -0.5132451     2.4550929
C           1.1558070    -0.7055670     0.3107303
S           0.2800080    -0.1997518    -1.1069108
C          -0.8483726     0.6677630    -0.1258360
H          -1.6609163     1.2085882    -0.5938274
21
211_C7H10O2S2_1-0-17-18 (120,) energy =   -1219.5146395
S           2.5316464    -1.7822780     0.1133950
C           4.0569993    -0.7915552     0.4314233
H           3.9750567     0.0472905    -0.2695573
C           5.2489398    -1.6776769     0.0496311
H           5.1705928    -2.0263579    -0.9828349
H           5.3110441    -2.5483445     0.7101345
H           6.1720203    -1.0974854     0.1551156
C           4.1261022    -0.2923992     1.8730549
H           3.3250292     0.4155887     2.1022713
H           5.0795332     0.2258972     2.0246723
H           4.0734872    -1.1296236     2.5754538
O           2.4319413    -2.7860032     1.1871607
O           2.5451299    -2.1890067    -1.3031339
C          -0.5644242     0.6151130     1.1866132
H          -1.1140803     1.1451598     1.9565325
C           0.6523199    -0.0841213     1.4195747
H           1.1140220    -0.1910628     2.3936952
C           1.1574649    -0.6523319     0.2742709
S           0.1065963    -0.4005344    -1.0928045
C          -0.9756422     0.5288548    -0.1188896
H          -1.8633840     0.9585361    -0.5649901
21
211_C7H10O2S2_1-0-17-18 (135,) energy =   -1219.5118459
S           2.4712853    -1.7097829     0.0500630
C           4.0062227    -0.7535379     0.4386675
H           3.9076692     0.1618965    -0.1559210
C           5.1835275    -1.5888743    -0.0812839
H           5.0737490    -1.8158263    -1.1438988
H           5.2642559    -2.5304448     0.4714565
H           6.1101759    -1.0234874     0.0649985
C           4.1306988    -0.4349707     1.9277841
H           3.3741995     0.2762474     2.2683739
H           5.1114941     0.0176833     2.1117663
H           4.0526509    -1.3474655     2.5255831
O           2.3412182    -2.7611816     1.0739256
O           2.5044853    -2.0658677    -1.3800911
C          -0.5766161     0.7739529     1.1030346
H          -1.0591234     1.4132905     1.8339915
C           0.6945972     0.1657119     1.3004288
H           1.2620374     0.2512316     2.2183178
C           1.0992770    -0.5711005     0.2128416
S          -0.1138776    -0.5901701    -1.0405276
C          -1.1300854     0.4490585    -0.1081702
H          -2.0826827     0.7690000    -0.5104114
21
211_C7H10O2S2_1-0-17-18 (150,) energy =   -1219.5099773
S           2.4690791    -1.8116034     0.1679169
C           3.9536562    -0.7845863     0.5939093
H           3.7327609     0.2003176     0.1674744
C           5.1607532    -1.4006843    -0.1217907
H           4.9995093    -1.4634776    -1.1996588
H           5.3680020    -2.4069828     0.2569115
H           6.0405947    -0.7768398     0.0701512
C           4.1506978    -0.7052009     2.1087107
H           3.2965709    -0.2637630     2.6290249
H           5.0314260    -0.0884281     2.3205154
H           4.3126189    -1.7029386     2.5246914
O           2.3129311    -2.8362068     1.2145580
O           2.5623696    -2.2233623    -1.2439876
C          -0.4531617     0.9399261     0.8971002
H          -0.8317415     1.7825963     1.4648667
C           0.8361382     0.3673127     1.0948628
H           1.5364766     0.7192478     1.8422464
C           1.0845846    -0.6748360     0.2358007
S          -0.2735275    -0.9874894    -0.8118739
C          -1.1629755     0.3058757    -0.0876808
H          -2.1595827     0.5340995    -0.4426663
21
211_C7H10O2S2_1-0-17-18 (165,) energy =   -1219.5091733
S           2.4794561    -1.8011274     0.0662505
C           3.9320877    -0.7846706     0.5969472
H           3.7274774     0.2159383     0.2000645
C           5.1715470    -1.3668298    -0.0915781
H           5.0588114    -1.3779911    -1.1774108
H           5.3623375    -2.3897844     0.2489234
H           6.0403575    -0.7527923     0.1694070
C           4.0585869    -0.7700519     2.1215889
H           3.1710196    -0.3693332     2.6187690
H           4.9170703    -0.1498335     2.4032197
H           4.2202187    -1.7835412     2.4979960
O           2.3283003    -2.9177921     1.0148787
O           2.6058367    -2.0894252    -1.3725594
C          -0.3781369     1.0110665     0.8461852
H          -0.6821978     1.9345477     1.3261731
C           0.9383257     0.4706017     0.9328543
H           1.7383671     0.9398478     1.4918148
C           1.0720292    -0.7002880     0.2285284
S          -0.4191963    -1.1600821    -0.5497119
C          -1.2149852     0.2369030     0.0894262
H          -2.2575054     0.4106425    -0.1431419
21
211_C7H10O2S2_1-0-17-18 (180,) energy =   -1219.5093999
S           2.5288427    -1.7713062    -0.0418359
C           3.9540441    -0.7943385     0.6055656
H           3.7994540     0.2156792     0.2101873
C           5.2240929    -1.3939945    -0.0089174
H           5.1856141    -1.3786393    -1.1000202
H           5.3636126    -2.4281984     0.3219418
H           6.0874450    -0.8080714     0.3243767
C           3.9736452    -0.8044518     2.1350309
H           3.0595804    -0.3911202     2.5704709
H           4.8213315    -0.2064395     2.4881450
H           4.0900894    -1.8268241     2.5050035
O           2.3931267    -2.9982865     0.7616085
O           2.6793280    -1.8774602    -1.5027454
C          -0.3217278     1.0332990     0.7871176
H          -0.5927820     2.0163494     1.1555645
C           1.0143319     0.5349430     0.7716266
H           1.8660416     1.1063216     1.1195705
C           1.0933046    -0.7392249     0.2664214
S          -0.4705172    -1.3391305    -0.2190783
C          -1.2231960     0.1358651     0.2840715
H          -2.2942043     0.2506840     0.1801966
