22
108_C9H9N3O_8-0-16-17 (-165,) energy =    -587.8605912
C           3.3430384    -1.1439129    -1.7819108
H           3.8089818    -0.8178570    -2.7260035
H           3.4615198    -2.2334398    -1.7544847
C           5.6871323     0.6892130     1.3363965
H           6.2599929     1.1925377     2.1072016
C           4.4600504     1.3395411     0.9135428
N           3.7732689     0.6337561    -0.1006157
H           2.8563586     1.0055463    -0.3656028
C           4.1575459    -0.5553134    -0.6432283
C           5.3121719    -1.1542262    -0.2082818
H           5.6341104    -2.0968153    -0.6364758
C           6.0808078    -0.5026716     0.7975597
H           6.9993380    -0.9728443     1.1419706
C          -0.0233189     0.2182298    -1.7340662
H          -0.7354003     0.9686763    -1.4214694
N           1.2859892     0.2527622    -1.3064674
C           1.8803667    -0.7944626    -1.8455345
N           1.0015753    -1.4914707    -2.6299594
H           1.1994917    -2.3407852    -3.1395864
C          -0.2243101    -0.8564872    -2.5578705
H          -1.0936244    -1.2264418    -3.0795013
O           3.9997912     2.3922805     1.3469423
22
108_C9H9N3O_8-0-16-17 (-150,) energy =    -587.8616805
C           3.4051198    -1.0518813    -1.9129895
H           3.8461276    -0.6166058    -2.8242138
H           3.5691684    -2.1323585    -1.9860124
C           5.6562312     0.6146357     1.3607317
H           6.2051792     1.0809528     2.1712075
C           4.4747535     1.3171993     0.8917025
N           3.8193571     0.6586299    -0.1731335
H           2.9352295     1.0730989    -0.4817059
C           4.1916423    -0.5316123    -0.7232933
C           5.3009658    -1.1798204    -0.2456137
H           5.6123302    -2.1235222    -0.6788206
C           6.0378551    -0.5773800     0.8143020
H           6.9213336    -1.0861253     1.1937885
C           0.0140912     0.2269516    -1.7989867
H          -0.6931974     1.0021944    -1.5403514
N           1.3518486     0.3492140    -1.4946936
C           1.9299301    -0.7576423    -1.9219774
N           1.0121195    -1.5810829    -2.5135948
H           1.1950795    -2.4918029    -2.9100456
C          -0.2218690    -0.9630631    -2.4346975
H          -1.1190813    -1.4209135    -2.8220129
O           4.0292355     2.3752530     1.3269237
22
108_C9H9N3O_8-0-16-17 (-135,) energy =    -587.8623532
C           3.4486782    -0.9500889    -2.0151906
H           3.8752071    -0.4285362    -2.8857257
H           3.6458394    -2.0157977    -2.1691686
C           5.5831571     0.5499249     1.4122232
H           6.1004012     0.9779350     2.2636306
C           4.4494341     1.3012982     0.9011721
N           3.8327390     0.6892781    -0.2131126
H           2.9850816     1.1439914    -0.5624428
C           4.2024490    -0.4954022    -0.7782253
C           5.2665328    -1.1879080    -0.2636465
H           5.5753929    -2.1271916    -0.7079647
C           5.9614043    -0.6364141     0.8518265
H           6.8091211    -1.1804838     1.2625371
C           0.0369804     0.2519443    -1.8424941
H          -0.6739351     1.0401225    -1.6381923
N           1.3901025     0.4468688    -1.6749955
C           1.9670167    -0.6970397    -1.9935316
N           1.0332575    -1.6190059    -2.3754333
H           1.2154395    -2.5709838    -2.6591674
C          -0.2100338    -1.0223687    -2.2814125
H          -1.1196781    -1.5495161    -2.5249025
O           4.0138659     2.3614719     1.3405546
22
108_C9H9N3O_8-0-16-17 (-120,) energy =    -587.8625518
C           3.4716845    -0.8732748    -2.1258467
H           3.8821816    -0.2825424    -2.9572573
H           3.7005228    -1.9210395    -2.3436486
C           5.4928469     0.4900589     1.4247208
H           5.9782889     0.8856857     2.3098253
C           4.3982668     1.2777887     0.8827675
N           3.8226754     0.7062183    -0.2741607
H           3.0091300     1.1940413    -0.6555664
C           4.1949965    -0.4719537    -0.8523327
C           5.2208263    -1.1981805    -0.3093254
H           5.5315163    -2.1320914    -0.7634887
C           5.8741675    -0.6887842     0.8511829
H           6.6919880    -1.2596049     1.2855053
C           0.0441746     0.2588886    -1.9080858
H          -0.6756380     1.0527614    -1.7660905
N           1.3987610     0.5083383    -1.8875165
C           1.9856860    -0.6578600    -2.0854792
N           1.0578897    -1.6494620    -2.2369825
H           1.2494930    -2.6286874    -2.3930691
C          -0.1934108    -1.0729481    -2.1279559
H          -1.1010358    -1.6494666    -2.2203323
O           3.9636062     2.3348943     1.3295044
22
108_C9H9N3O_8-0-16-17 (-105,) energy =    -587.8623372
C           3.5251773    -0.7816194    -2.2196899
H           3.9173725    -0.1244520    -3.0069543
H           3.7890385    -1.8064686    -2.4988089
C           5.4196491     0.4326594     1.4521718
H           5.8703826     0.7926210     2.3702125
C           4.3653440     1.2573524     0.8851493
N           3.8329621     0.7286724    -0.3123123
H           3.0560917     1.2511673    -0.7193389
C           4.2136317    -0.4373449    -0.9111333
C           5.2015044    -1.1967912    -0.3453968
H           5.5182507    -2.1211299    -0.8146758
C           5.8082247    -0.7343393     0.8598499
H           6.5962242    -1.3318875     1.3128626
C           0.0797855     0.2782420    -1.9984268
H          -0.6577066     1.0659844    -1.9329848
N           1.4233843     0.5623143    -2.1108610
C           2.0351821    -0.6065134    -2.1729941
N           1.1356712    -1.6326814    -2.0970519
H           1.3511912    -2.6192191    -2.1148306
C          -0.1250795    -1.0771976    -1.9915095
H          -1.0164298    -1.6831398    -1.9348158
O           3.9301792     2.3095760     1.3419078
22
108_C9H9N3O_8-0-16-17 (-90,) energy =    -587.8617514
C           3.5562592    -0.7195760    -2.2919845
H           3.9230429    -0.0077088    -3.0414172
H           3.8539802    -1.7200833    -2.6223425
C           5.3557535     0.3559410     1.4699658
H           5.7796950     0.6811394     2.4133517
C           4.3320525     1.2126376     0.8941578
N           3.8329343     0.7263022    -0.3355684
H           3.0875226     1.2813607    -0.7537640
C           4.2202869    -0.4250763    -0.9601628
C           5.1796451    -1.2131337    -0.3857275
H           5.5019675    -2.1256440    -0.8739716
C           5.7506726    -0.7962542     0.8536049
H           6.5165354    -1.4171944     1.3129871
C           0.0879193     0.2639008    -2.1280613
H          -0.6748983     1.0288600    -2.1709456
N           1.4145055     0.5601042    -2.3567265
C           2.0629572    -0.5847598    -2.2414632
N           1.2054649    -1.6039167    -1.9305473
H           1.4550775    -2.5704302    -1.7765216
C          -0.0675928    -1.0723146    -1.8636985
H          -0.9335197    -1.6818395    -1.6544721
O           3.8957312     2.2569422     1.3668345
22
108_C9H9N3O_8-0-16-17 (-75,) energy =    -587.8610187
C           3.5444582    -0.6462209    -2.3344440
H           3.8672877     0.1179926    -3.0508835
H           3.8809577    -1.6155962    -2.7186326
C           5.3184192     0.2834391     1.4791582
H           5.7340083     0.5708111     2.4383580
C           4.3172816     1.1756466     0.9179211
N           3.8273239     0.7366013    -0.3336012
H           3.1053898     1.3262465    -0.7412503
C           4.2054418    -0.3993507    -0.9938040
C           5.1443839    -1.2194936    -0.4310283
H           5.4607786    -2.1192916    -0.9459827
C           5.7043478    -0.8532805     0.8296274
H           6.4546038    -1.5008453     1.2777602
C           0.0278716     0.1713996    -2.2959844
H          -0.7790979     0.8661281    -2.4836502
N           1.3324255     0.4860715    -2.6115512
C           2.0472009    -0.5704234    -2.2709941
N           1.2537766    -1.5469368    -1.7311587
H           1.5636597    -2.4378190    -1.3697004
C          -0.0466477    -1.0834286    -1.7484733
H          -0.8727845    -1.6790416    -1.3905901
O           3.8912292     2.2116900     1.4166820
22
108_C9H9N3O_8-0-16-17 (-60,) energy =    -587.8604051
C           3.5426409    -0.5259406    -2.3534910
H           3.8263781     0.2909533    -3.0268482
H           3.9104970    -1.4561075    -2.8028726
C           5.3262984     0.1874844     1.5033721
H           5.7449535     0.4187556     2.4762862
C           4.3727134     1.1452468     0.9680484
N           3.8753335     0.7761898    -0.3033333
H           3.1910860     1.4203375    -0.6899261
C           4.2089446    -0.3488544    -1.0071510
C           5.1044227    -1.2305876    -0.4662457
H           5.3877489    -2.1222434    -1.0135620
C           5.6672138    -0.9392227     0.8129393
H           6.3833521    -1.6367949     1.2412263
C          -0.0257271     0.0309974    -2.5001761
H          -0.8785179     0.5970811    -2.8487657
N           1.2589889     0.3758271    -2.8620670
C           2.0425399    -0.5124760    -2.2813516
N           1.3118589    -1.4111308    -1.5493708
H           1.6832668    -2.1601312    -0.9820904
C          -0.0190196    -1.0711790    -1.6840819
H          -0.8058560    -1.6306515    -1.2010515
O           3.9890307     2.1806505     1.5008464
22
108_C9H9N3O_8-0-16-17 (-45,) energy =    -587.8598616
C           3.5395474    -0.4031443    -2.3622742
H           3.7875651     0.4607729    -2.9893888
H           3.9438399    -1.2879846    -2.8699308
C           5.3195155     0.1139564     1.5286430
H           5.7395774     0.2951178     2.5115024
C           4.4243854     1.1360289     1.0117546
N           3.9221816     0.8303967    -0.2746843
H           3.2824105     1.5256892    -0.6469988
C           4.2040823    -0.2896108    -1.0105342
C           5.0449250    -1.2325220    -0.4842217
H           5.2879767    -2.1212527    -1.0550163
C           5.6075685    -1.0089872     0.8089663
H           6.2811166    -1.7557154     1.2230346
C          -0.0566138    -0.1694017    -2.6552575
H          -0.9405193     0.2377175    -3.1268510
N           1.2064390     0.2060810    -3.0594034
C           2.0388404    -0.4686035    -2.2911332
N           1.3609102    -1.2573137    -1.3992967
H           1.7768066    -1.8424551    -0.6881142
C           0.0119966    -1.0727821    -1.6252971
H          -0.7421363    -1.5811645    -1.0437211
O           4.0898794     2.1750685     1.5697384
22
108_C9H9N3O_8-0-16-17 (-30,) energy =    -587.8590300
C           3.5391690    -0.2999324    -2.3815956
H           3.7568523     0.6057033    -2.9596258
H           3.9756952    -1.1364000    -2.9419767
C           5.3218300     0.0492714     1.5273179
H           5.7448619     0.1883415     2.5157414
C           4.4735134     1.1207976     1.0327078
N           3.9637038     0.8672433    -0.2623740
H           3.3618984     1.6026543    -0.6197479
C           4.2041468    -0.2437862    -1.0280021
C           5.0025706    -1.2331749    -0.5209071
H           5.2108112    -2.1171927    -1.1122255
C           5.5664368    -1.0662145     0.7803249
H           6.2063388    -1.8505191     1.1778032
C          -0.0552452    -0.3566843    -2.7749569
H          -0.9468299    -0.1058185    -3.3333334
N           1.1948077     0.0154512    -3.2195383
C           2.0407212    -0.4420843    -2.3181899
N           1.3838933    -1.0827261    -1.3014230
H           1.8141301    -1.5110377    -0.4935771
C           0.0342050    -1.0369800    -1.5870765
H          -0.7058996    -1.4685147    -0.9303530
O           4.1806057     2.1597754     1.6136909
22
108_C9H9N3O_8-0-16-17 (-15,) energy =    -587.8580453
C           3.5308864    -0.2604561    -2.3843692
H           3.7346364     0.6706766    -2.9278111
H           3.9810298    -1.0639299    -2.9795483
C           5.3382286    -0.0103030     1.5220865
H           5.7688155     0.1029489     2.5105399
C           4.4653459     1.0603226     1.0718631
N           3.9471639     0.8396549    -0.2265015
H           3.3387656     1.5823214    -0.5563310
C           4.2029165    -0.2395662    -1.0344057
C           5.0250943    -1.2282556    -0.5667625
H           5.2397290    -2.0902063    -1.1873182
C           5.5972303    -1.0943935     0.7343107
H           6.2556545    -1.8791805     1.0990905
C          -0.0432638    -0.5300117    -2.8637908
H          -0.9180902    -0.4306706    -3.4919530
N           1.2130393    -0.2193759    -3.3358871
C           2.0344035    -0.4478238    -2.3311406
N           1.3545378    -0.8791214    -1.2231031
H           1.7622185    -1.1308519    -0.3336740
C           0.0161977    -0.9424280    -1.5569664
H          -0.7369164    -1.2541818    -0.8493109
O           4.1569059     2.0737226     1.6891126
22
108_C9H9N3O_8-0-16-17 (0,) energy =    -587.8574156
C           2.5671123    -1.7013592    -0.4241301
H           2.8887350    -2.6833645    -0.7862518
H           2.0566384    -1.8842534     0.5316470
C           5.9194939     0.9044130     0.3259197
H           6.7280456     1.5927329     0.5442170
C           4.5996099     1.2926460     0.7901120
N           3.6003442     0.3418892     0.4670950
H           2.6776350     0.5864870     0.8126495
C           3.7876202    -0.8469865    -0.1955785
C           5.0481962    -1.1692671    -0.6169530
H           5.2190973    -2.0974990    -1.1489678
C           6.1211672    -0.2696689    -0.3409738
H           7.1224701    -0.5336080    -0.6728450
C          -0.1680056    -0.8641473    -2.6363452
H          -1.1263487    -1.1037709    -3.0767652
N           0.4345235    -1.7118551    -1.7330789
C           1.5669351    -1.1269457    -1.3996948
N           1.7158553     0.0706732    -2.0480264
H           2.5032103     0.6990305    -1.9720360
C           0.6056823     0.2477494    -2.8503698
H           0.4811736     1.1225254    -3.4703402
O           4.2954871     2.3139794     1.3965886
22
108_C9H9N3O_8-0-16-17 (15,) energy =    -587.8580474
C           2.6053769    -1.7213198    -0.4684224
H           2.9596191    -2.6739874    -0.8797328
H           2.1051876    -1.9664996     0.4771495
C           5.8943747     0.9378858     0.3675986
H           6.6860673     1.6382796     0.6082957
C           4.5594020     1.2942429     0.8163489
N           3.5845249     0.3296514     0.4661250
H           2.6476866     0.5609405     0.7813917
C           3.8039406    -0.8422945    -0.2136873
C           5.0761649    -1.1341159    -0.6235760
H           5.2721266    -2.0522662    -1.1645529
C           6.1285396    -0.2198347    -0.3164616
H           7.1393199    -0.4592247    -0.6381589
C          -0.2361621    -0.7627374    -2.4891807
H          -1.2599460    -0.9129370    -2.8039526
N           0.3468351    -1.5766179    -1.5431145
C           1.5756489    -1.1239907    -1.3955800
N           1.8044603    -0.0401428    -2.2014980
H           2.6671982     0.4808134    -2.2714540
C           0.6455358     0.1986494    -2.9131056
H           0.5643207     1.0102882    -3.6200529
O           4.2285588     2.3022562     1.4308763
22
108_C9H9N3O_8-0-16-17 (30,) energy =    -587.8590299
C           2.6233914    -1.7463275    -0.4642054
H           2.9967330    -2.6828304    -0.8976278
H           2.1194991    -2.0182395     0.4705739
C           5.8618545     0.9621238     0.4055222
H           6.6394593     1.6754585     0.6540567
C           4.5333453     1.2514773     0.9191223
N           3.5767640     0.2744996     0.5559217
H           2.6408696     0.4658052     0.8997622
C           3.8068225    -0.8498474    -0.1932708
C           5.0711558    -1.0805210    -0.6642169
H           5.2762605    -1.9668780    -1.2531231
C           6.1064651    -0.1496485    -0.3469800
H           7.1115976    -0.3391459    -0.7162958
C          -0.2595313    -0.6363659    -2.3442924
H          -1.3220946    -0.6622288    -2.5441235
N           0.2973522    -1.3961127    -1.3385729
C           1.5881029    -1.1308748    -1.3691849
N           1.8840752    -0.2183199    -2.3465865
H           2.8019102     0.1466750    -2.5599509
C           0.7024426     0.1041896    -2.9830595
H           0.6633548     0.8165503    -3.7931675
O           4.1966663     2.2160996     1.5965794
22
108_C9H9N3O_8-0-16-17 (45,) energy =    -587.8598614
C           2.6842184    -1.7604153    -0.5460674
H           3.0839621    -2.6549800    -1.0401453
H           2.1940785    -2.1005063     0.3732617
C           5.8335121     1.0023955     0.4660564
H           6.5864196     1.7293043     0.7489539
C           4.4768260     1.2716945     0.9132360
N           3.5552703     0.2776293     0.5093430
H           2.5984449     0.4561655     0.7990971
C           3.8399178    -0.8417673    -0.2264191
C           5.1285209    -1.0543662    -0.6355381
H           5.3760157    -1.9392719    -1.2103609
C           6.1323177    -0.1067752    -0.2703921
H           7.1571347    -0.2804608    -0.5902184
C          -0.2662718    -0.4786921    -2.1966631
H          -1.3411341    -0.3854730    -2.2702803
N           0.3208458    -1.2042165    -1.1824269
C           1.6197476    -1.1160346    -1.3906133
N           1.8939367    -0.3522549    -2.4944507
H           2.8137164    -0.1137636    -2.8383582
C           0.6874182     0.0627202    -3.0206506
H           0.6291911     0.6904752    -3.8969659
O           4.0930958     2.2336472     1.5691602
22
108_C9H9N3O_8-0-16-17 (60,) energy =    -587.8604051
C           2.7425553    -1.7947912    -0.6487214
H           3.1642000    -2.6402688    -1.2055101
H           2.2744861    -2.2049214     0.2534003
C           5.7972072     1.0040321     0.5356264
H           6.5236264     1.7397489     0.8617692
C           4.4131731     1.2588013     0.8999282
N           3.5286166     0.2541787     0.4435627
H           2.5516156     0.4202693     0.6682112
C           3.8707263    -0.8595578    -0.2740203
C           5.1830206    -1.0602673    -0.6050142
H           5.4737553    -1.9416636    -1.1649186
C           6.1523128    -0.1020096    -0.1805464
H           7.1964682    -0.2637927    -0.4383181
C          -0.2427000    -0.2918464    -2.0240024
H          -1.2944006    -0.0502464    -1.9549369
N           0.3952990    -0.9995106    -1.0278437
C           1.6466245    -1.1243198    -1.4264617
N           1.8422498    -0.5130542    -2.6369232
H           2.7193352    -0.4393264    -3.1329276
C           0.6334782     0.0243766    -3.0305994
H           0.5192090     0.5596374    -3.9611297
O           3.9808919     2.2176621     1.5299035
22
108_C9H9N3O_8-0-16-17 (75,) energy =    -587.8610187
C           2.8084771    -1.8331789    -0.7493747
H           3.2586226    -2.6216683    -1.3627103
H           2.3726720    -2.3158658     0.1329955
C           5.7328474     1.0217570     0.6126444
H           6.4238138     1.7698782     0.9844771
C           4.3256786     1.2436599     0.9023319
N           3.4899405     0.2252684     0.3889031
H           2.4955877     0.3649358     0.5525772
C           3.8970576    -0.8715510    -0.3186149
C           5.2288649    -1.0433755    -0.5788686
H           5.5683653    -1.9120177    -1.1312567
C           6.1515924    -0.0691623    -0.0926691
H           7.2117537    -0.2051718    -0.2941417
C          -0.1584861    -0.1192336    -1.8868824
H          -1.1475298     0.2752129    -1.6991275
N           0.5353452    -0.8045179    -0.9125036
C           1.6801951    -1.1543949    -1.4690661
N           1.7564292    -0.7053568    -2.7602648
H           2.5396283    -0.8188176    -3.3880148
C           0.5771603    -0.0446277    -3.0414892
H           0.3814501     0.3933937    -4.0085365
O           3.8398531     2.1875023     1.5161597
22
108_C9H9N3O_8-0-16-17 (90,) energy =    -587.8617515
C           2.8573605    -1.8172040    -0.8283655
H           3.3210738    -2.5550729    -1.4911610
H           2.4518219    -2.3632707     0.0320455
C           5.7131647     1.0213107     0.6994000
H           6.3859203     1.7627260     1.1155143
C           4.2949285     1.2315588     0.9398365
N           3.4837198     0.2225482     0.3726266
H           2.4798382     0.3536128     0.4894682
C           3.9240054    -0.8520520    -0.3466166
C           5.2650787    -1.0142817    -0.5624046
H           5.6291545    -1.8661725    -1.1251509
C           6.1638618    -0.0494153    -0.0174248
H           7.2315247    -0.1755712    -0.1827233
C          -0.0644593     0.0505072    -1.8276561
H          -0.9734780     0.5787839    -1.5756657
N           0.6906782    -0.5788415    -0.8614258
C           1.7076464    -1.1272505    -1.5013126
N           1.6441416    -0.8602218    -2.8411746
H           2.3090099    -1.1546216    -3.5422081
C           0.5050265    -0.1115359    -3.0641623
H           0.2144058     0.2103616    -4.0526225
O           3.7831419     2.1604761     1.5559287
22
108_C9H9N3O_8-0-16-17 (105,) energy =    -587.8623370
C           2.9025298    -1.7753756    -0.9017664
H           3.3795174    -2.4613260    -1.6086772
H           2.5231246    -2.3846654    -0.0709163
C           5.7151447     1.0076981     0.7987637
H           6.3779923     1.7315927     1.2593488
C           4.2908686     1.2191633     0.9986255
N           3.4924844     0.2329221     0.3767513
H           2.4835452     0.3706206     0.4497066
C           3.9509701    -0.8183562    -0.3634007
C           5.2976768    -0.9824108    -0.5425219
H           5.6751685    -1.8174320    -1.1214768
C           6.1834176    -0.0417093     0.0617967
H           7.2551558    -0.1684245    -0.0744104
C          -0.0141845     0.1448854    -1.8217125
H          -0.8598838     0.7584851    -1.5442251
N           0.8228637    -0.3941324    -0.8691740
C           1.7324123    -1.0814428    -1.5359612
N           1.5161010    -0.9991095    -2.8829619
H           2.0752895    -1.4286973    -3.6060029
C           0.3922672    -0.2196085    -3.0791778
H          -0.0012939    -0.0173977    -4.0636090
O           3.7650612     2.1335538     1.6251918
22
108_C9H9N3O_8-0-16-17 (120,) energy =    -587.8625518
C           2.9451495    -1.7115752    -0.9995011
H           3.4378025    -2.3379980    -1.7495012
H           2.5875654    -2.3884885    -0.2104269
C           5.7229424     0.9781032     0.8977158
H           6.3785210     1.6744998     1.4084310
C           4.2957212     1.2112048     1.0427709
N           3.5056951     0.2592910     0.3599787
H           2.4960256     0.4184565     0.3829997
C           3.9763410    -0.7754155    -0.3942756
C           5.3268892    -0.9596972    -0.5232556
H           5.7138656    -1.7824802    -1.1133909
C           6.2030685    -0.0564287     0.1472147
H           7.2771456    -0.1994390     0.0512562
C           0.0025946     0.2114674    -1.8479128
H          -0.7949050     0.8831473    -1.5626728
N           0.9332779    -0.2249192    -0.9308833
C           1.7551447    -1.0158200    -1.5962039
N           1.3851468    -1.1080070    -2.9083163
H           1.8530515    -1.6440737    -3.6250109
C           0.2588446    -0.3262295    -3.0823413
H          -0.2365166    -0.2375425    -4.0370408
O           3.7606951     2.1180523     1.6731307
22
108_C9H9N3O_8-0-16-17 (135,) energy =    -587.8623533
C           2.9983327    -1.6430289    -1.1028996
H           3.5100198    -2.2049720    -1.8907509
H           2.6607634    -2.3858593    -0.3639093
C           5.7339945     0.9387383     0.9956580
H           6.3808769     1.6034424     1.5572152
C           4.3075151     1.2011664     1.0815926
N           3.5277445     0.2887446     0.3359359
H           2.5222827     0.4774591     0.3072427
C           4.0091181    -0.7330568    -0.4280438
C           5.3606205    -0.9443592    -0.5021357
H           5.7559435    -1.7575506    -1.1000398
C           6.2248687    -0.0834880     0.2349834
H           7.2987583    -0.2489265     0.1827975
C           0.0152626     0.2565822    -1.8817423
H          -0.7428782     0.9745328    -1.6022313
N           1.0406733    -0.0727333    -1.0232016
C           1.7869136    -0.9527209    -1.6647409
N           1.2696337    -1.2136676    -2.9025482
H           1.6570768    -1.8426203    -3.5912156
C           0.1331742    -0.4417065    -3.0547648
H          -0.4597016    -0.4642623    -3.9562132
O           3.7642244     2.1024669     1.7134284
22
108_C9H9N3O_8-0-16-17 (150,) energy =    -587.8616805
C           3.0595018    -1.5721462    -1.2201354
H           3.5933659    -2.0573639    -2.0442898
H           2.7470559    -2.3832721    -0.5428371
C           5.7361141     0.8876751     1.0922283
H           6.3702259     1.5177030     1.7059365
C           4.3151048     1.1874954     1.1101359
N           3.5506583     0.3183592     0.2993580
H           2.5549851     0.5422605     0.2147184
C           4.0437859    -0.6939638    -0.4687422
C           5.3922808    -0.9397324    -0.4790793
H           5.7969608    -1.7462149    -1.0799181
C           6.2388975    -0.1257323     0.3271555
H           7.3092646    -0.3198331     0.3253883
C           0.0310220     0.2952860    -1.9192500
H          -0.6914759     1.0540632    -1.6539042
N           1.1443381     0.0649498    -1.1416866
C           1.8207862    -0.8964986    -1.7416311
N           1.1679700    -1.3108799    -2.8697072
H           1.4809119    -2.0242011    -3.5125901
C           0.0216980    -0.5489301    -2.9977470
H          -0.6627518    -0.6756252    -3.8224324
O           3.7628986     2.0868179     1.7375606
22
108_C9H9N3O_8-0-16-17 (165,) energy =    -587.8605912
C           3.1301806    -1.4933296    -1.3401290
H           3.6783065    -1.8717318    -2.2108874
H           2.8606812    -2.3834409    -0.7486910
C           5.7560675     0.8032077     1.1914492
H           6.3797068     1.3900169     1.8565590
C           4.3484878     1.1554738     1.1456978
N           3.5962789     0.3421024     0.2676799
H           2.6173571     0.6115793     0.1323821
C           4.0910270    -0.6643131    -0.5058112
C           5.4292426    -0.9603026    -0.4542398
H           5.8356985    -1.7635778    -1.0584088
C           6.2609545    -0.2047654     0.4200695
H           7.3221904    -0.4393000     0.4665175
C           0.0640418     0.3655762    -1.9182262
H          -0.6171521     1.1668480    -1.6694719
N           1.2563086     0.2063964    -1.2463199
C           1.8533431    -0.8362449    -1.7913337
N           1.0715718    -1.3723839    -2.7786923
H           1.3044392    -2.1634550    -3.3619669
C          -0.0735542    -0.6038658    -2.8749255
H          -0.8461528    -0.8136267    -3.5986403
O           3.7957871     2.0551052     1.7726967
22
108_C9H9N3O_8-0-16-17 (180,) energy =    -587.8595779
C           3.2410455    -1.3246021    -1.5785940
H           3.7735357    -1.3487109    -2.5401963
H           3.1661777    -2.3746309    -1.2622751
C           5.7496557     0.7457390     1.2606891
H           6.3537036     1.2892493     1.9785225
C           4.4157029     1.2592748     1.0153750
N           3.6880186     0.4995524     0.0695843
H           2.7355579     0.8213033    -0.1331573
C           4.1382873    -0.6084203    -0.5778277
C           5.4060363    -1.0698887    -0.3237092
H           5.7793995    -1.9517407    -0.8327782
C           6.2107768    -0.3672356     0.6149703
H           7.2157120    -0.7306432     0.8187117
C           0.0077707     0.3304794    -1.7990233
H          -0.6798716     1.1107495    -1.5057672
N           1.2726026     0.2519143    -1.2577499
C           1.8527814    -0.7938405    -1.8143206
N           1.0003177    -1.3948970    -2.7015575
H           1.1972298    -2.2136051    -3.2594551
C          -0.1843216    -0.6823677    -2.6988982
H          -1.0220603    -0.9605169    -3.3197369
O           3.8983111     2.2448709     1.5347544
