22
107_C9H9N3O_16-0-8-9 (-165,) energy =    -587.8567761
C           2.8552686    -1.5946671    -1.0419790
H           3.3028817    -2.3310067    -1.7154297
H           2.4929091    -2.1800545    -0.1798749
C           6.1546195     0.6526675     0.6878789
H           6.9402497     1.2626200     1.1193548
N           4.9870433     1.2870595     0.3896695
H           4.8654160     2.2685711     0.6134607
C           3.8264924     0.7017653    -0.1395113
C           3.9751990    -0.7036055    -0.4999426
C           5.1481035    -1.3371054    -0.1500583
H           5.2344487    -2.4019250    -0.3583549
C           6.2631330    -0.6818024     0.4363120
H           7.1737592    -1.2196255     0.6693473
C          -0.0716448    -1.1218914    -3.0724884
H          -0.7411210    -1.4884673    -3.8395594
N           1.0640911    -1.8156990    -2.7240061
C           1.6368343    -1.0923243    -1.7721999
N           0.9081526     0.0219074    -1.4876450
H           1.2717126     0.7671441    -0.8949291
C          -0.1829217     0.0265637    -2.3273326
H          -0.9061331     0.8285443    -2.3207629
O           2.8254372     1.4286672    -0.2264205
22
107_C9H9N3O_16-0-8-9 (-150,) energy =    -587.8607253
C           2.7050285    -1.6210129    -0.8772415
H           3.0835976    -2.4957465    -1.4115591
H           2.2761299    -2.0071124     0.0637291
C           6.1330761     0.6507925     0.5164229
H           6.9408415     1.2736293     0.8838722
N           4.9157065     1.2504855     0.3861043
H           4.7840317     2.2119425     0.6801683
C           3.7269017     0.6340780    -0.0280289
C           3.8879235    -0.7432754    -0.4810646
C           5.1111766    -1.3461659    -0.2933404
H           5.2109439    -2.3975881    -0.5550359
C           6.2617098    -0.6652667     0.1903862
H           7.2134901    -1.1717203     0.2930353
C          -0.0078036    -1.0614653    -3.1764232
H          -0.6147565    -1.3995297    -4.0060087
N           1.0627602    -1.7993952    -2.7260012
C           1.5678279    -1.1026809    -1.7182425
N           0.8592506     0.0397705    -1.4989366
H           1.1707095     0.7523513    -0.8411822
C          -0.1475729     0.0873706    -2.4362089
H          -0.8420881     0.9126838    -2.4890337
O           2.6843747     1.3009202     0.0518478
22
107_C9H9N3O_16-0-8-9 (-135,) energy =    -587.8645753
C           2.6213099    -1.6365868    -0.7036765
H           2.9530155    -2.5937658    -1.1126168
H           2.1326241    -1.8574865     0.2596466
C           6.1188868     0.6684674     0.4024481
H           6.9383985     1.3063664     0.7137372
N           4.8724362     1.2230723     0.4369539
H           4.7403913     2.1675128     0.7814783
C           3.6750634     0.5773242     0.1068120
C           3.8398074    -0.7780879    -0.4044298
C           5.0946612    -1.3383079    -0.3900291
H           5.2036626    -2.3730272    -0.7075114
C           6.2633181    -0.6230630    -0.0051227
H           7.2413318    -1.0875970    -0.0323718
C           0.1715212    -1.0152311    -3.2771291
H          -0.3571945    -1.3298771    -4.1672292
N           1.1580644    -1.7955386    -2.7171132
C           1.5790415    -1.1189767    -1.6599101
N           0.8983859     0.0532060    -1.5142238
H           1.1479460     0.7434449    -0.8089491
C          -0.0012567     0.1391295    -2.5525915
H          -0.6585279     0.9874760    -2.6731443
O           2.6127072     1.1895194     0.2937204
22
107_C9H9N3O_16-0-8-9 (-120,) energy =    -587.8670002
C           2.5250754    -1.6512572    -0.5391012
H           2.8155862    -2.6588846    -0.8457174
H           1.9895362    -1.7411807     0.4180524
C           6.0695010     0.6813312     0.2943831
H           6.8986147     1.3323630     0.5475992
N           4.8179506     1.1895789     0.4968483
H           4.6972630     2.1206074     0.8797756
C           3.6149628     0.5223960     0.2444826
C           3.7702263    -0.8177454    -0.3046681
C           5.0315109    -1.3276238    -0.4837456
H           5.1358711    -2.3407348    -0.8654159
C           6.2102514    -0.5807531    -0.1987469
H           7.1950971    -1.0010645    -0.3618553
C           0.3270934    -0.9953123    -3.3294264
H          -0.1294927    -1.2953007    -4.2633698
N           1.2301033    -1.8088578    -2.6805320
C           1.5745417    -1.1439551    -1.5907505
N           0.9282769     0.0551964    -1.5098334
H           1.1197691     0.7324385    -0.7753721
C           0.1292960     0.1678229    -2.6256809
H          -0.4872091     1.0359511    -2.8056531
O           2.5473821     1.0956755     0.5093943
22
107_C9H9N3O_16-0-8-9 (-105,) energy =    -587.8673545
C           2.4359011    -1.6519314    -0.3880068
H           2.6859021    -2.6933177    -0.6061008
H           1.8631647    -1.6315617     0.5486590
C           6.0105041     0.6969148     0.2041938
H           6.8475635     1.3564591     0.4036149
N           4.7767232     1.1592509     0.5678336
H           4.6745338     2.0793292     0.9812737
C           3.5692748     0.4785863     0.3846838
C           3.7060967    -0.8492235    -0.1964001
C           4.9446677    -1.3015573    -0.5712078
H           5.0289269    -2.2860042    -1.0258457
C           6.1269477    -0.5305776    -0.3758140
H           7.0983505    -0.9071579    -0.6722844
C           0.4828012    -0.9877559    -3.3567810
H           0.0975637    -1.2807972    -4.3244262
N           1.3057134    -1.8235281    -2.6319914
C           1.5731508    -1.1640468    -1.5194687
N           0.9570987     0.0550196    -1.4963696
H           1.0934006     0.7286023    -0.7476367
C           0.2572482     0.1838398    -2.6759610
H          -0.3207059     1.0656553    -2.9091532
O           2.5059107     1.0262304     0.7121529
22
107_C9H9N3O_16-0-8-9 (-90,) energy =    -587.8655819
C           2.3626296    -1.6409708    -0.2826894
H           2.5681933    -2.7065876    -0.4165504
H           1.7634766    -1.5187018     0.6265756
C           5.9702071     0.6896838     0.1199639
H           6.8181454     1.3462956     0.2792213
N           4.7759516     1.1084226     0.6379903
H           4.7019699     2.0122237     1.0913764
C           3.5595506     0.4303598     0.5080389
C           3.6614741    -0.8783361    -0.1223295
C           4.8491910    -1.2689302    -0.6833805
H           4.8917721    -2.2120017    -1.2237227
C           6.0368227    -0.4911080    -0.5571990
H           6.9750959    -0.8265541    -0.9820620
C           0.6304077    -1.0166080    -3.3956274
H           0.3080881    -1.3184921    -4.3832719
N           1.3779009    -1.8591865    -2.5986971
C           1.5800786    -1.1868888    -1.4817578
N           0.9975772     0.0495476    -1.5247571
H           1.0787391     0.7321878    -0.7780042
C           0.3863922     0.1729429    -2.7541926
H          -0.1541208     1.0619751    -3.0427693
O           2.5118425     0.9647236     0.8983303
22
107_C9H9N3O_16-0-8-9 (-75,) energy =    -587.8621649
C           2.3008303    -1.5730646    -0.1857878
H           2.4587157    -2.6551159    -0.2226909
H           1.6910795    -1.3434364     0.6928990
C           5.9723047     0.6719774     0.0977390
H           6.8429932     1.3033176     0.2358760
N           4.8440901     1.0417712     0.7761619
H           4.8287482     1.8999939     1.3155384
C           3.6055452     0.3912791     0.6958588
C           3.6305516    -0.8558700    -0.0578118
C           4.7426633    -1.1829801    -0.7884579
H           4.7076923    -2.0555021    -1.4372646
C           5.9504068    -0.4305522    -0.7031596
H           6.8340741    -0.7227670    -1.2574178
C           0.7634262    -1.0912506    -3.4238413
H           0.5164814    -1.4297711    -4.4211912
N           1.4660016    -1.8952946    -2.5490995
C           1.5772091    -1.1882563    -1.4417537
N           0.9798482     0.0368141    -1.5671301
H           0.9728463     0.7459589    -0.8443400
C           0.4535458     0.1118209    -2.8403772
H          -0.0816963     0.9805458    -3.1931666
O           2.6056962     0.8993421     1.2166412
22
107_C9H9N3O_16-0-8-9 (-60,) energy =    -587.8599124
C           2.2181580    -1.3222050    -0.1527587
H           2.3113194    -2.4060898    -0.0250725
H           1.6114690    -0.9411855     0.6737274
C           6.0822133     0.5825463     0.1355795
H           7.0165870     1.1114236     0.2888493
N           5.0588597     0.9087787     0.9800160
H           5.1852262     1.6235938     1.6873417
C           3.7656044     0.3594997     0.9485199
C           3.5892036    -0.6745689    -0.0646641
C           4.6118754    -0.9825397    -0.9226391
H           4.4332458    -1.7221830    -1.7001272
C           5.8902355    -0.3588694    -0.8310765
H           6.6929040    -0.6203898    -1.5099107
C           0.8996140    -1.1939325    -3.5171907
H           0.8073620    -1.6029616    -4.5143979
N           1.6449122    -1.8320417    -2.5480683
C           1.5347687    -1.0839373    -1.4660699
N           0.7497348     0.0121610    -1.7042553
H           0.5280585     0.7344110    -1.0333341
C           0.3345824    -0.0473813    -3.0201450
H          -0.3114614     0.7006427    -3.4543994
O           2.9060407     0.7706894     1.7309827
22
107_C9H9N3O_16-0-8-9 (-45,) energy =    -587.8596836
C           2.1233522    -1.0954933    -0.1197129
H           2.1288778    -2.1569823     0.1584168
H           1.5348268    -0.5766116     0.6430092
C           6.1415789     0.4613921     0.1616684
H           7.1244911     0.8889912     0.3272802
N           5.1994486     0.7259300     1.1152245
H           5.4303340     1.2958714     1.9208149
C           3.8698560     0.2702439     1.1016913
C           3.5408918    -0.5512115    -0.0583139
C           4.4859177    -0.8066086    -1.0165127
H           4.2016205    -1.4093111    -1.8760297
C           5.8157337    -0.3014323    -0.9193093
H           6.5540821    -0.5154692    -1.6826304
C           0.9173828    -1.2309755    -3.5281543
H           0.9004378    -1.6866319    -4.5090936
N           1.6916358    -1.7484660    -2.5118133
C           1.4747995    -0.9719721    -1.4652340
N           0.5883448     0.0248024    -1.7742825
H           0.2668779     0.7462241    -1.1446458
C           0.2219039    -0.1308862    -3.0965684
H          -0.4840222     0.5277054    -3.5795713
O           3.1063986     0.5819153     2.0176889
22
107_C9H9N3O_16-0-8-9 (-30,) energy =    -587.8595519
C           2.1083283    -0.9106132    -0.1439081
H           2.0390842    -1.9214331     0.2819229
H           1.5332335    -0.2701853     0.5331924
C           6.2090378     0.4026056     0.1635631
H           7.2163942     0.7603389     0.3468796
N           5.3112389     0.5797309     1.1786994
H           5.5948253     1.0228850     2.0448762
C           3.9640027     0.1828720     1.1555444
C           3.5556766    -0.4549698    -0.0918817
C           4.4566352    -0.6257411    -1.1088349
H           4.1226039    -1.1113331    -2.0220630
C           5.8121829    -0.1960746    -0.9938188
H           6.5156411    -0.3420581    -1.8047217
C           0.9666400    -1.3629489    -3.5498207
H           0.9979463    -1.8800547    -4.4994203
N           1.7761683    -1.7434821    -2.5014540
C           1.4876686    -0.9218754    -1.5074326
N           0.5194831    -0.0286244    -1.8831679
H           0.1288643     0.6991485    -1.3019657
C           0.1751994    -0.3020841    -3.1918681
H          -0.5806105     0.2610098    -3.7181346
O           3.2448014     0.3911195     2.1344197
22
107_C9H9N3O_16-0-8-9 (-15,) energy =    -587.8591739
C           2.0891470    -0.7099495    -0.1687235
H           1.9323274    -1.6455252     0.3882595
H           1.5399643     0.0461929     0.4049177
C           6.2603998     0.3210520     0.2177403
H           7.2871094     0.6002944     0.4279880
N           5.3825673     0.4104505     1.2617690
H           5.6961681     0.7263549     2.1722027
C           4.0163656     0.0919708     1.2062620
C           3.5632050    -0.3622479    -0.1045733
C           4.4441903    -0.4477568    -1.1487585
H           4.0837226    -0.8093127    -2.1072232
C           5.8213465    -0.1039153    -0.9992985
H           6.5091158    -0.1817724    -1.8327712
C           1.0031159    -1.4545213    -3.5443232
H           1.0800489    -2.0187530    -4.4640092
N           1.8531235    -1.6928784    -2.4863555
C           1.4944121    -0.8459919    -1.5373803
N           0.4415370    -0.0735010    -1.9529079
H          -0.0181929     0.6415727    -1.4076609
C           0.1147834    -0.4559336    -3.2382545
H          -0.6923776     0.0036803    -3.7882156
O           3.3129184     0.2109671     2.2110699
22
107_C9H9N3O_16-0-8-9 (0,) energy =    -587.8585531
C           2.0727895     0.0294528    -0.3328956
H           1.6376159    -0.5720450     0.4766184
H           1.7718962     1.0596580    -0.0911388
C           6.3440756    -0.1480925     0.2254216
H           7.3987053    -0.1542367     0.4783601
N           5.4876923     0.2541876     1.2119402
H           5.8404171     0.5208769     2.1237870
C           4.0914125     0.3335316     1.0933860
C           3.5801011    -0.0462978    -0.2197546
C           4.4404164    -0.4519228    -1.2039936
H           4.0387370    -0.7057988    -2.1795862
C           5.8508276    -0.5079908    -0.9917484
H           6.5209047    -0.8243677    -1.7821068
C           0.9318254    -0.5798682    -3.7187194
H           0.9979693    -0.4222042    -4.7868454
N           1.8170909     0.0228514    -2.8517389
C           1.4666584    -0.3767921    -1.6422936
N           0.3848565    -1.2166596    -1.7061397
H          -0.0781902    -1.6466731    -0.9183175
C           0.0298629    -1.3519176    -3.0332482
H          -0.8005396    -1.9659147    -3.3473326
O           3.4085402     0.6975061     2.0524121
22
107_C9H9N3O_16-0-8-9 (15,) energy =    -587.8591739
C           2.0526884     0.2491122    -0.4057322
H           1.5566959    -0.2102136     0.4576545
H           1.8290767     1.3221888    -0.3128378
C           6.2851798    -0.2357137     0.2743560
H           7.3284661    -0.3271044     0.5563362
N           5.4132994     0.0881276     1.2761184
H           5.7461106     0.2268646     2.2232299
C           4.0282269     0.2611031     1.1255734
C           3.5474002     0.0607688    -0.2377420
C           4.4227113    -0.2664333    -1.2380155
H           4.0400303    -0.3884231    -2.2469699
C           5.8202758    -0.4199627    -0.9923215
H           6.5028830    -0.6735287    -1.7945173
C           0.9251068    -0.6421769    -3.7317899
H           0.9644697    -0.5376561    -4.8077193
N           1.7538507     0.0920245    -2.9115707
C           1.4531230    -0.2706556    -1.6768781
N           0.4579367    -1.2127539    -1.6796164
H           0.0482250    -1.6419726    -0.8623747
C           0.1082082    -1.4580006    -2.9921266
H          -0.6634944    -2.1635397    -3.2602693
O           3.3324607     0.5523851     2.1000982
22
107_C9H9N3O_16-0-8-9 (30,) energy =    -587.8595519
C           2.0576053     0.4411069    -0.4722763
H           1.5273445     0.1293908     0.4338184
H           1.9164553     1.5293602    -0.5327864
C           6.2397295    -0.3360305     0.2630383
H           7.2692962    -0.5108750     0.5558975
N           5.3542064    -0.1046686     1.2780434
H           5.6662034    -0.1012522     2.2422609
C           3.9824766     0.1540766     1.1215634
C           3.5332699     0.1489446    -0.2669008
C           4.4223946    -0.0887504    -1.2808243
H           4.0572103    -0.0780690    -2.3044893
C           5.8045170    -0.3357748    -1.0277125
H           6.4978895    -0.5174664    -1.8400860
C           0.8950473    -0.7287300    -3.6953269
H           0.8921709    -0.6823485    -4.7760476
N           1.6733156     0.1260902    -2.9451309
C           1.4409484    -0.1897881    -1.6831626
N           0.5389080    -1.2173030    -1.5995041
H           0.1990340    -1.6376725    -0.7463879
C           0.1793860    -1.5715584    -2.8845155
H          -0.5336535    -2.3562336    -3.0873475
O           3.2773933     0.3531438     2.1125448
22
107_C9H9N3O_16-0-8-9 (45,) energy =    -587.8596836
C           2.0595866     0.6182200    -0.5323140
H           1.5071891     0.4521653     0.3975424
H           1.9897732     1.6915200    -0.7497988
C           6.1766395    -0.3937770     0.2892432
H           7.1867834    -0.6405399     0.5976328
N           5.2531401    -0.2707640     1.2886746
H           5.5216076    -0.4109098     2.2558358
C           3.8948688     0.0460851     1.1144149
C           3.5117311     0.2489611    -0.2786615
C           4.4387532     0.1158222    -1.2783372
H           4.1148891     0.2582338    -2.3067725
C           5.8005524    -0.2082719    -1.0071905
H           6.5238660    -0.3057502    -1.8077791
C           0.8552681    -0.8406270    -3.6164171
H           0.8087440    -0.8663217    -4.6968462
N           1.5888756     0.1203748    -2.9542162
C           1.4245602    -0.1271658    -1.6669665
N           0.6109448    -1.2125399    -1.4802451
H           0.3394612    -1.6013712    -0.5884276
C           0.2376524    -1.6797010    -2.7249834
H          -0.4192042    -2.5274514    -2.8483758
O           3.1530494     0.1220240     2.0957377
22
107_C9H9N3O_16-0-8-9 (60,) energy =    -587.8599124
C           3.2969994    -0.7503621    -2.2847609
H           3.4377269     0.0561566    -3.0100542
H           3.6741474    -1.6740277    -2.7368528
C           5.6034738     0.2837715     1.2156584
H           6.2087634     0.6294403     2.0465584
N           5.5006341     1.1326691     0.1500340
H           5.9563700     2.0377556     0.1690633
C           4.7584233     0.8919930    -1.0189001
C           4.1107229    -0.4143910    -1.0470433
C           4.1993573    -1.2526803     0.0328804
H           3.6633423    -2.1988259     0.0018390
C           4.9609216    -0.9179052     1.1902487
H           5.0305723    -1.5956780     2.0324239
C          -0.0586152    -1.7905900    -1.4290520
H          -0.7691453    -2.5540608    -1.1418290
N           1.2668002    -2.0958398    -1.6569876
C           1.8398763    -0.9562362    -1.9966882
N           0.9336488     0.0700071    -1.9924555
H           1.1371727     1.0358656    -2.2083643
C          -0.2915164    -0.4539708    -1.6292990
H          -1.1812758     0.1539843    -1.5644252
O           4.6977325     1.7572078    -1.8951958
22
107_C9H9N3O_16-0-8-9 (75,) energy =    -587.8621649
C           3.3774710    -1.0026802    -2.3111135
H           3.5858967    -0.3074943    -3.1295800
H           3.6744873    -2.0070097    -2.6277152
C           5.4864983     0.3689371     1.1917914
H           6.0186034     0.8116959     2.0264147
N           5.1848553     1.2073664     0.1545235
H           5.3960312     2.1968850     0.2175014
C           4.4626295     0.8456523    -0.9905232
C           4.1797029    -0.5801333    -1.0958907
C           4.4236713    -1.3995759    -0.0250765
H           4.1023023    -2.4377740    -0.0733754
C           5.1087167    -0.9394191     1.1372611
H           5.3286335    -1.6080083     1.9607224
C          -0.0985320    -1.6331671    -1.5362926
H          -0.9232360    -2.3034115    -1.3340046
N           1.1639298    -2.1164045    -1.8154700
C           1.9065959    -1.0466532    -2.0217598
N           1.1778298     0.1037064    -1.8841528
H           1.5603602     1.0369489    -1.9741010
C          -0.1151388    -0.2611413    -1.5696817
H          -0.8983658     0.4657383    -1.4153174
O           4.0987798     1.7143166    -1.7918266
22
107_C9H9N3O_16-0-8-9 (90,) energy =    -587.8655818
C           3.3596823    -1.1158610    -2.2426866
H           3.6196039    -0.5049166    -3.1144029
H           3.6124598    -2.1560351    -2.4659621
C           5.4979558     0.3944140     1.1860426
H           6.0258332     0.8727583     2.0033794
N           5.0254725     1.2217385     0.2051144
H           5.1263069     2.2270402     0.2893181
C           4.2865423     0.8103326    -0.9088944
C           4.1565834    -0.6333007    -1.0483588
C           4.5873127    -1.4525917    -0.0377901
H           4.4102999    -2.5230026    -0.1156125
C           5.2843584    -0.9487158     1.0987169
H           5.6436835    -1.6119954     1.8761033
C          -0.1787110    -1.5288054    -1.6181556
H          -1.0522940    -2.1474254    -1.4612055
N           1.0632425    -2.0877579    -1.8392662
C           1.8785850    -1.0628319    -1.9979761
N           1.2177430     0.1292976    -1.8882355
H           1.6799194     1.0316610    -1.9369073
C          -0.1074196    -0.1574988    -1.6392978
H          -0.8509252     0.6154003    -1.5142941
O           3.7903949     1.6569105    -1.6656770
22
107_C9H9N3O_16-0-8-9 (105,) energy =    -587.8673541
C           3.3211915    -1.1906835    -2.1349246
H           3.6368846    -0.6633692    -3.0449423
H           3.5347331    -2.2537534    -2.2715375
C           5.5855224     0.4198664     1.1702189
H           6.1384756     0.9195990     1.9575593
N           4.9637489     1.2292604     0.2610446
H           5.0157575     2.2377733     0.3513404
C           4.1875288     0.7920757    -0.8164645
C           4.1178860    -0.6545836    -0.9634525
C           4.7327076    -1.4607307    -0.0408335
H           4.6523247    -2.5398539    -0.1500333
C           5.4824681    -0.9335337     1.0501837
H           5.9671598    -1.5862067     1.7660175
C          -0.2605809    -1.4582512    -1.7241670
H          -1.1622962    -2.0467074    -1.6182457
N           0.9740001    -2.0587835    -1.8516026
C           1.8319337    -1.0615172    -1.9674162
N           1.2037323     0.1507169    -1.9231856
H           1.7067121     1.0337629    -1.9367665
C          -0.1427854    -0.0900796    -1.7599622
H          -0.8666652     0.7084298    -1.6938009
O           3.6310090     1.6276102    -1.5445216
22
107_C9H9N3O_16-0-8-9 (120,) energy =    -587.8670003
C           3.2772872    -1.2658916    -1.9912045
H           3.6569761    -0.8352825    -2.9300628
H           3.4454585    -2.3445092    -2.0361237
C           5.6926054     0.4410554     1.1634598
H           6.2789946     0.9579026     1.9147360
N           4.9320807     1.2258563     0.3440862
H           4.9452779     2.2349380     0.4420283
C           4.1091108     0.7694920    -0.6905498
C           4.0797867    -0.6784584    -0.8462159
C           4.8641442    -1.4568774    -0.0327531
H           4.8583559    -2.5348201    -0.1775606
C           5.6790371    -0.9113390     1.0001099
H           6.2788698    -1.5485694     1.6383222
C          -0.3292817    -1.4215400    -1.8678581
H          -1.2499209    -1.9891876    -1.8377144
N           0.8975185    -2.0484851    -1.8833492
C           1.7858982    -1.0700779    -1.9260839
N           1.1830617     0.1540221    -1.9446176
H           1.7085684     1.0242059    -1.9075753
C          -0.1769845    -0.0565805    -1.8989762
H          -0.8849421     0.7588402    -1.8964127
O           3.4997115     1.6014647    -1.3797549
22
107_C9H9N3O_16-0-8-9 (135,) energy =    -587.8645753
C           3.2087225    -1.3218489    -1.8399784
H           3.6509886    -1.0136637    -2.8017578
H           3.3172114    -2.4072249    -1.7795971
C           5.7982903     0.4826780     1.1277546
H           6.4233540     1.0140070     1.8365563
N           4.9084671     1.2374148     0.4199364
H           4.8834498     2.2444160     0.5357971
C           4.0282364     0.7669108    -0.5616489
C           4.0359126    -0.6803915    -0.7374374
C           4.9683665    -1.4211666    -0.0515125
H           5.0171133    -2.4920107    -0.2365397
C           5.8562610    -0.8603899     0.9090403
H           6.5603617    -1.4786264     1.4522467
C          -0.3926891    -1.3656236    -2.0346932
H          -1.3245208    -1.9130348    -2.0880829
N           0.8152797    -2.0175409    -1.9270972
C           1.7266529    -1.0580387    -1.8899160
N           1.1553390     0.1765152    -1.9793855
H           1.6940770     1.0341767    -1.8779067
C          -0.2067900    -0.0047045    -2.0612624
H          -0.8928664     0.8265602    -2.1285657
O           3.3573703     1.5999024    -1.1896466
22
107_C9H9N3O_16-0-8-9 (150,) energy =    -587.8607253
C           3.1047865    -1.3839783    -1.6724913
H           3.5956733    -1.2437789    -2.6511936
H           3.1338528    -2.4587064    -1.4773674
C           5.8931545     0.5218429     1.0566947
H           6.5614114     1.0646617     1.7156454
N           4.8877486     1.2427617     0.4839548
H           4.8248332     2.2435504     0.6345330
C           3.9368954     0.7625358    -0.4270813
C           3.9857013    -0.6789706    -0.6460769
C           5.0377643    -1.3797775    -0.1010378
H           5.1217265    -2.4401812    -0.3300072
C           6.0017297    -0.8055995     0.7721397
H           6.7958926    -1.4022393     1.2036913
C          -0.4547506    -1.3086857    -2.2049595
H          -1.3894238    -1.8340378    -2.3508519
N           0.7183925    -1.9879902    -1.9686719
C           1.6457236    -1.0498813    -1.8417656
N           1.1176529     0.1958302    -1.9988731
H           1.6592570     1.0398854    -1.8209750
C          -0.2328170     0.0469672    -2.2191670
H          -0.8877667     0.8949273    -2.3543855
O           3.1854821     1.5959722    -0.9549800
22
107_C9H9N3O_16-0-8-9 (165,) energy =    -587.8567761
C           3.0335328    -1.4617580    -1.4918079
H           3.5567839    -1.5458083    -2.4594198
H           2.9680913    -2.4870749    -1.1166718
C           5.9833152     0.5626530     0.9848600
H           6.6856347     1.1192453     1.5950960
N           4.8876769     1.2421882     0.5462800
H           4.7791511     2.2289717     0.7528910
C           3.8675695     0.7441191    -0.2788123
C           3.9754003    -0.6804090    -0.5730764
C           5.1127548    -1.3381431    -0.1567928
H           5.2257317    -2.3850646    -0.4323321
C           6.1316779    -0.7455708     0.6350963
H           6.9950778    -1.3135600     0.9587014
C          -0.4403219    -1.2830414    -2.3929109
H          -1.3641102    -1.7885423    -2.6420457
N           0.6840874    -1.9875173    -2.0297658
C           1.6113688    -1.0691157    -1.7971387
N           1.1324458     0.1870224    -2.0120349
H           1.6556838     1.0179790    -1.7389160
C          -0.1894227     0.0673316    -2.3777274
H          -0.8086232     0.9299129    -2.5746864
O           3.0160357     1.5587681    -0.6651496
22
107_C9H9N3O_16-0-8-9 (180,) energy =    -587.8543907
C           2.9253950    -1.5433102    -1.2585759
H           3.4349506    -2.0442058    -2.0903405
H           2.6857016    -2.3568257    -0.5581248
C           6.0963375     0.6269505     0.7916287
H           6.8607100     1.2135070     1.2886899
N           4.9819280     1.2958475     0.3888389
H           4.8862297     2.2889985     0.5698671
C           3.8618629     0.7550019    -0.2619628
C           3.9670868    -0.6703801    -0.5503158
C           5.0971707    -1.3327014    -0.1181973
H           5.1657785    -2.4012148    -0.3146665
C           6.1819375    -0.7118511     0.5529972
H           7.0513159    -1.2785098     0.8624689
C          -0.2610672    -1.1886529    -2.8783877
H          -1.0354119    -1.6123272    -3.5045561
N           0.8967894    -1.8796665    -2.6083423
C           1.6066226    -1.0776390    -1.8270366
N           0.9482578     0.0854868    -1.5775146
H           1.3901877     0.8680871    -1.0939838
C          -0.2486345     0.0362210    -2.2569743
H          -0.9498492     0.8571816    -2.2398119
O           2.9323852     1.5405295    -0.5042590
