22
107_C9H9N3O_8-0-16-17 (-165,) energy =    -587.8580377
C           2.0941501    -0.2965382    -0.1435432
H           1.8374661    -1.0570309     0.6118584
H           1.6552987     0.6256222     0.2625916
C           6.3564835     0.2494208     0.1779289
H           7.4082113     0.4227155     0.3786385
N           5.4930800     0.5176804     1.2032379
H           5.8378447     0.8578624     2.0933299
C           4.1005508     0.3578409     1.1544436
C           3.5956439    -0.1312829    -0.1257507
C           4.4636721    -0.4003129    -1.1514387
H           4.0608540    -0.7729795    -2.0872819
C           5.8713232    -0.2091463    -1.0085812
H           6.5464096    -0.4265963    -1.8277269
C           0.8489405    -1.3485074    -3.3956756
H           0.9906642    -1.7603952    -4.3855219
N           1.9139142    -1.1622228    -2.5399725
C           1.4107503    -0.6421236    -1.4357764
N           0.0509614    -0.4970478    -1.5533873
H          -0.5674564    -0.1199360    -0.8494582
C          -0.3191863    -0.9458446    -2.8056023
H          -1.3444409    -0.9292952    -3.1429050
O           3.4139496     0.6261327     2.1430253
22
107_C9H9N3O_8-0-16-17 (-150,) energy =    -587.8586319
C           2.1315630    -0.4699265    -0.0667957
H           1.9504583    -1.3189999     0.6125102
H           1.6505307     0.3776492     0.4379682
C           6.3600458     0.3459316     0.1266479
H           7.4048521     0.5853991     0.2923765
N           5.5104158     0.5945091     1.1682645
H           5.8593670     0.9797253     2.0381641
C           4.1288430     0.3502684     1.1660340
C           3.6202029    -0.2033907    -0.0856225
C           4.4743048    -0.4528925    -1.1273324
H           4.0686009    -0.8797550    -2.0390595
C           5.8714355    -0.1757142    -1.0322597
H           6.5359580    -0.3787512    -1.8636171
C           0.8461061    -1.4184341    -3.3288349
H           0.9564853    -1.8844137    -4.2985990
N           1.8957816    -1.3667580    -2.4372699
C           1.4397959    -0.7309260    -1.3729612
N           0.1246941    -0.3841162    -1.5498336
H          -0.4504301     0.1124398    -0.8844615
C          -0.2662372    -0.8178614    -2.8007518
H          -1.2636722    -0.6562685    -3.1804409
O           3.4561591     0.6053630     2.1674333
22
107_C9H9N3O_8-0-16-17 (-135,) energy =    -587.8591467
C           2.1279104    -0.6363771    -0.0246409
H           2.0146337    -1.5596104     0.5656086
H           1.6157389     0.1311164     0.5669090
C           6.3071087     0.4268415     0.0793859
H           7.3396254     0.7290985     0.2170974
N           5.4591232     0.6795041     1.1212120
H           5.7992017     1.1237114     1.9661739
C           4.0925058     0.3609452     1.1545302
C           3.5991383    -0.2768415    -0.0623994
C           4.4512965    -0.5287778    -1.1047715
H           4.0559244    -1.0164082    -1.9910188
C           5.8326323    -0.1747576    -1.0464111
H           6.4960651    -0.3813263    -1.8777199
C           0.8221482    -1.4218058    -3.3168697
H           0.8953475    -1.9154980    -4.2764784
N           1.8282296    -1.5246926    -2.3810278
C           1.4329429    -0.8094224    -1.3425841
N           0.1995974    -0.2608411    -1.5789516
H          -0.3162147     0.3290560    -0.9418223
C          -0.2024904    -0.6448777    -2.8424636
H          -1.1461984    -0.3355187    -3.2653535
O           3.4226761     0.6276306     2.1546526
22
107_C9H9N3O_8-0-16-17 (-120,) energy =    -587.8596244
C           2.3427143    -1.4518161    -0.2295271
H           2.4702519    -2.5385976    -0.2950451
H           1.7635559    -1.2345768     0.6741337
C           6.1226181     0.5808865     0.0842905
H           7.0179512     1.1833077     0.1913675
N           4.9468232     1.1770647     0.4473859
H           4.9386309     2.1316941     0.7876994
C           3.6790954     0.5806913     0.3746359
C           3.6945595    -0.7912261    -0.1204926
C           4.8731419    -1.3850899    -0.4779049
H           4.8591405    -2.4046377    -0.8560169
C           6.1210206    -0.7000268    -0.3797666
H           7.0483683    -1.1785846    -0.6702721
C           0.8861335    -0.6456359    -3.4412872
H           0.9045476    -0.6745611    -4.5226972
N           1.9113927    -1.1834825    -2.6943497
C           1.5724456    -0.9830863    -1.4353533
N           0.3552978    -0.3652444    -1.3428484
H          -0.0379962     0.0123127    -0.4922193
C          -0.0864223    -0.1211449    -2.6277663
H          -1.0214003     0.3795361    -2.8292537
O           2.6755080     1.2079314     0.7204103
22
107_C9H9N3O_8-0-16-17 (-105,) energy =    -587.8620252
C           2.3939918    -1.5374863    -0.3104234
H           2.5590779    -2.6116293    -0.4424197
H           1.8104474    -1.3921433     0.6048193
C           6.0939971     0.6210728     0.1090184
H           6.9641162     1.2535345     0.2456464
N           4.8879844     1.1729411     0.4433494
H           4.8373397     2.1227951     0.7934569
C           3.6473822     0.5316682     0.3331472
C           3.7228137    -0.8346194    -0.1709816
C           4.9309584    -1.3838240    -0.5011216
H           4.9632997    -2.4013618    -0.8836716
C           6.1499680    -0.6550230    -0.3650981
H           7.1015183    -1.0982966    -0.6324368
C           0.7957881    -0.7278780    -3.4526963
H           0.7007477    -0.8412210    -4.5244898
N           1.7807934    -1.3874046    -2.7487791
C           1.6045173    -1.0357927    -1.4895525
N           0.5231936    -0.2097473    -1.3485157
H           0.3326082     0.3241719    -0.5107179
C           0.0127383     0.0206432    -2.6100528
H          -0.8393598     0.6620884    -2.7775365
O           2.6115470     1.1219469     0.6566397
22
107_C9H9N3O_8-0-16-17 (-90,) energy =    -587.8649418
C           2.4197982    -1.6005645    -0.3496487
H           2.6218322    -2.6607270    -0.5271792
H           1.8373349    -1.5124542     0.5743919
C           6.0584816     0.6524711     0.1483091
H           6.9103314     1.3036871     0.3090491
N           4.8339649     1.1698451     0.4697344
H           4.7543915     2.1131675     0.8322523
C           3.6125652     0.5017624     0.3302412
C           3.7253347    -0.8556498    -0.1886443
C           4.9530293    -1.3698432    -0.5069930
H           5.0163252    -2.3823089    -0.8991211
C           6.1517936    -0.6147756    -0.3434623
H           7.1175576    -1.0322375    -0.6011842
C           0.6667565    -0.8359384    -3.4185644
H           0.4485925    -1.0300241    -4.4603748
N           1.5991116    -1.5850380    -2.7322693
C           1.6041793    -1.0930991    -1.5076767
N           0.6894900    -0.0865677    -1.3661506
H           0.6803891     0.5354647    -0.5658433
C           0.1007805     0.1084457    -2.5980777
H          -0.6498934     0.8666189    -2.7637145
O           2.5592011     1.0704283     0.6451084
22
107_C9H9N3O_8-0-16-17 (-75,) energy =    -587.8670304
C           2.4485896    -1.6467012    -0.3983997
H           2.6857130    -2.6910969    -0.6172611
H           1.8770510    -1.6171668     0.5380421
C           6.0473136     0.6610938     0.1910047
H           6.8892480     1.3168095     0.3823654
N           4.8129352     1.1548004     0.5093686
H           4.7168083     2.0867606     0.8967218
C           3.6005678     0.4803673     0.3349802
C           3.7304511    -0.8622947    -0.2145966
C           4.9703989    -1.3516466    -0.5312227
H           5.0499965    -2.3542644    -0.9451159
C           6.1594678    -0.5905712    -0.3355249
H           7.1320732    -0.9922547    -0.5924680
C           0.5285813    -0.9352304    -3.3777839
H           0.1918011    -1.1922513    -4.3733546
N           1.4079056    -1.7438821    -2.6896038
C           1.5915878    -1.1434320    -1.5278330
N           0.8542984     0.0027685    -1.4312940
H           0.9624181     0.6603534    -0.6647817
C           0.1796728     0.1579359    -2.6226622
H          -0.4701798     0.9994993    -2.8108296
O           2.5406180     1.0407955     0.6495380
22
107_C9H9N3O_8-0-16-17 (-60,) energy =    -587.8673899
C           2.4718459    -1.6631208    -0.4516592
H           2.7438371    -2.6880132    -0.7155306
H           1.9184801    -1.7006656     0.4977156
C           6.0300992     0.6856941     0.2534074
H           6.8635281     1.3403832     0.4818175
N           4.7864228     1.1587340     0.5640813
H           4.6749118     2.0783147     0.9763177
C           3.5811364     0.4849962     0.3446020
C           3.7269767    -0.8410775    -0.2382411
C           4.9786787    -1.3085441    -0.5480537
H           5.0741776    -2.2991279    -0.9868243
C           6.1593445    -0.5474096    -0.3114339
H           7.1383190    -0.9358389    -0.5643781
C           0.3756614    -1.0084056    -3.3218646
H          -0.0710206    -1.3158965    -4.2581141
N           1.2117445    -1.8482206    -2.6178790
C           1.5621173    -1.1651572    -1.5423702
N           0.9928433     0.0757549    -1.5278275
H           1.1673922     0.7545870    -0.7910407
C           0.2276040     0.1901525    -2.6672726
H          -0.3333731     1.0840751    -2.8958638
O           2.5147451     1.0400461     0.6502275
22
107_C9H9N3O_8-0-16-17 (-45,) energy =    -587.8659549
C           2.5093658    -1.6811569    -0.5296533
H           2.8124028    -2.6806965    -0.8503256
H           1.9820127    -1.7985143     0.4301174
C           6.0275833     0.6869479     0.3192536
H           6.8521084     1.3363466     0.5909724
N           4.7742199     1.1486329     0.6044235
H           4.6471868     2.0570767     1.0365126
C           3.5758752     0.4814188     0.3307736
C           3.7387738    -0.8305350    -0.2781261
C           5.0024530    -1.2844831    -0.5639906
H           5.1134835    -2.2643253    -1.0227438
C           6.1751339    -0.5298254    -0.2755097
H           7.1611293    -0.9114569    -0.5107820
C           0.2166331    -1.0660540    -3.2517150
H          -0.3404376    -1.4126555    -4.1120711
N           1.0252740    -1.9193537    -2.5322386
C           1.5386969    -1.1778681    -1.5661374
N           1.1194296     0.1184733    -1.6519172
H           1.3450958     0.8195846    -0.9501272
C           0.2556990     0.2003468    -2.7224567
H          -0.2281957     1.1249412    -3.0000138
O           2.5025709     1.0359403     0.6125351
22
107_C9H9N3O_8-0-16-17 (-30,) energy =    -587.8632250
C           2.5659490    -1.6762172    -0.6097580
H           2.9012625    -2.6409615    -0.9984116
H           2.0729879    -1.8869598     0.3536414
C           6.0408245     0.7019100     0.3885964
H           6.8553176     1.3449459     0.7025142
N           4.7782291     1.1610443     0.6313134
H           4.6353691     2.0629393     1.0721399
C           3.5882525     0.5021371     0.3019863
C           3.7701628    -0.8029789    -0.3166956
C           5.0452158    -1.2515990    -0.5627354
H           5.1732064    -2.2249156    -1.0308828
C           6.2081460    -0.5053334    -0.2199358
H           7.2011006    -0.8865433    -0.4244268
C           0.0609809    -1.0916544    -3.1417286
H          -0.6038311    -1.4666820    -3.9086520
N           0.8597382    -1.9429401    -2.4091704
C           1.5266797    -1.1636801    -1.5756135
N           1.2267407     0.1537502    -1.7737216
H           1.5086804     0.8829152    -1.1230643
C           0.2640159     0.2106800    -2.7597841
H          -0.1635907     1.1458799    -3.0892694
O           2.5089090     1.0621419     0.5449558
22
107_C9H9N3O_8-0-16-17 (-15,) energy =    -587.8599480
C           2.6118013    -1.6739567    -0.7024168
H           2.9764895    -2.5896361    -1.1761305
H           2.1525316    -1.9940476     0.2474147
C           6.0488986     0.6818717     0.4717581
H           6.8542587     1.3127696     0.8307290
N           4.7810057     1.1491685     0.6631242
H           4.6257296     2.0476577     1.1067208
C           3.5990083     0.5073190     0.2718555
C           3.7955887    -0.7937238    -0.3524619
C           5.0780925    -1.2476046    -0.5495204
H           5.2194369    -2.2152500    -1.0256399
C           6.2318584    -0.5185839    -0.1454844
H           7.2289710    -0.9072895    -0.3119228
C          -0.0945211    -1.0736515    -3.0085660
H          -0.8608587    -1.4560888    -3.6698784
N           0.7023443    -1.9232185    -2.2718614
C           1.5110413    -1.1357302    -1.5851165
N           1.3080753     0.1801458    -1.8921741
H           1.6555697     0.9328445    -1.3043712
C           0.2518726     0.2335098    -2.7799801
H          -0.1323241     1.1701514    -3.1554996
O           2.5183755     1.0814372     0.4667655
22
107_C9H9N3O_8-0-16-17 (0,) energy =    -587.8568090
C           2.6781103    -1.6694701    -0.8079984
H           3.0872721    -2.5118132    -1.3754117
H           2.2563814    -2.1161993     0.1063600
C           6.0360952     0.6931635     0.5720315
H           6.8204025     1.3203519     0.9807903
N           4.7606645     1.1628634     0.6892830
H           4.5814157     2.0610580     1.1243455
C           3.5994387     0.5267392     0.2269570
C           3.8286893    -0.7747403    -0.3873764
C           5.1211267    -1.2273455    -0.5134901
H           5.2883785    -2.1922478    -0.9870997
C           6.2516744    -0.5050711    -0.0389476
H           7.2554527    -0.8964870    -0.1494100
C          -0.2180431    -1.0839558    -2.8679773
H          -1.0669895    -1.4741899    -3.4137723
N           0.5980067    -1.9129152    -2.1286854
C           1.5152145    -1.1221150    -1.6014465
N           1.3597649     0.1710371    -2.0170512
H           1.7681677     0.9505760    -1.5112493
C           0.2217613     0.2126289    -2.7999542
H          -0.1485185     1.1357924    -3.2200777
O           2.5146586     1.1090182     0.3560939
22
107_C9H9N3O_8-0-16-17 (15,) energy =    -587.8599476
C           3.2442224    -1.3792321    -1.8640014
H           3.7290146    -1.2363385    -2.8438747
H           3.2883232    -2.4540420    -1.6673396
C           5.8563867     0.6040917     0.9614054
H           6.5169331     1.1719972     1.6068834
N           5.1150815     1.3227874     0.0689639
H           5.1837679     2.3340499     0.0404613
C           4.1949498     0.7988191    -0.8480843
C           4.0902679    -0.6537408    -0.8363102
C           4.8342061    -1.3650066     0.0749431
H           4.7444834    -2.4488979     0.0864368
C           5.7300103    -0.7518034     0.9954525
H           6.3050914    -1.3422517     1.6980862
C          -0.3120553    -1.2153665    -2.4372984
H          -1.2223951    -1.6752440    -2.7987299
N           0.9037744    -1.8556414    -2.5469151
C           1.7844652    -1.0247302    -2.0185693
N           1.1807184     0.0958460    -1.5214882
H           1.7026311     0.9407375    -1.3055268
C          -0.1643637     0.0000509    -1.8196315
H          -0.8642793     0.7800382    -1.5594649
O           3.5543648     1.5835394    -1.5617265
22
107_C9H9N3O_8-0-16-17 (30,) energy =    -587.8632251
C           3.2868298    -1.3263085    -1.9483236
H           3.7425146    -1.0707974    -2.9192112
H           3.3799933    -2.4100521    -1.8432872
C           5.7954000     0.5774042     1.0198470
H           6.4281607     1.1312339     1.7041914
N           5.1005056     1.3152495     0.1052019
H           5.1793665     2.3260927     0.0938230
C           4.2226025     0.8095316    -0.8602973
C           4.1073113    -0.6415731    -0.8729066
C           4.8056337    -1.3733624     0.0568114
H           4.7097016    -2.4566687     0.0452544
C           5.6607322    -0.7781631     1.0270617
H           6.2006047    -1.3818191     1.7462501
C          -0.3090274    -1.2776747    -2.2558315
H          -1.2385679    -1.7828604    -2.4828378
N           0.9020858    -1.9263782    -2.3641712
C           1.8097294    -1.0288529    -2.0214196
N           1.2315140     0.1518528    -1.6520244
H           1.7677589     1.0059663    -1.5199088
C          -0.1297453     0.0130089    -1.8255190
H          -0.8180331     0.8201341    -1.6234862
O           3.6247939     1.6059837    -1.5991575
22
107_C9H9N3O_8-0-16-17 (45,) energy =    -587.8659547
C           3.3053633    -1.2955637    -2.0251886
H           3.7200226    -0.9502157    -2.9853436
H           3.4379385    -2.3796239    -1.9934527
C           5.7272653     0.5409681     1.0520538
H           6.3322640     1.0845273     1.7689363
N           5.0652700     1.2940457     0.1247444
H           5.1447287     2.3048577     0.1319396
C           4.2272889     0.8010937    -0.8807014
C           4.1127997    -0.6494488    -0.9165304
C           4.7788509    -1.3975596     0.0223330
H           4.6841296    -2.4805247    -0.0105575
C           5.5969478    -0.8150071     1.0319048
H           6.1126383    -1.4282945     1.7606802
C          -0.3059837    -1.3351724    -2.0605611
H          -1.2422614    -1.8707220    -2.1457205
N           0.9031509    -1.9899423    -2.1541583
C           1.8193612    -1.0477606    -2.0136973
N           1.2518630     0.1761265    -1.8046460
H           1.7954925     1.0344866    -1.7521287
C          -0.1150710     0.0079195    -1.8482208
H          -0.7993665     0.8335447    -1.7211297
O           3.6617694     1.6048291    -1.6377361
22
107_C9H9N3O_8-0-16-17 (60,) energy =    -587.8673899
C           3.3329676    -1.2738975    -2.0803110
H           3.7067636    -0.8531039    -3.0248488
H           3.4928695    -2.3542993    -2.1145095
C           5.6798999     0.4770213     1.0978878
H           6.2582699     1.0058423     1.8470388
N           5.0433804     1.2499654     0.1681415
H           5.1160901     2.2606199     0.2040785
C           4.2406352     0.7750743    -0.8734371
C           4.1353525    -0.6752972    -0.9425550
C           4.7765382    -1.4443419    -0.0051530
H           4.6867077    -2.5265691    -0.0652139
C           5.5606582    -0.8790194     1.0411992
H           6.0582855    -1.5052429     1.7715868
C          -0.2735054    -1.3666140    -1.8659368
H          -1.2051876    -1.9140140    -1.8114987
N           0.9382806    -2.0204872    -1.9288609
C           1.8455707    -1.0618426    -1.9913379
N           1.2706716     0.1762894    -1.9660141
H           1.8124239     1.0367823    -1.9796285
C          -0.0922173    -0.0050935    -1.8844918
H          -0.7818001     0.8251946    -1.8507118
O           3.6972167     1.5884801    -1.6361706
22
107_C9H9N3O_8-0-16-17 (75,) energy =    -587.8670303
C           3.3553117    -1.2260826    -2.1283179
H           3.6941370    -0.7468543    -3.0556683
H           3.5300280    -2.3012628    -2.2195246
C           5.6540808     0.4381864     1.1229739
H           6.2116469     0.9522559     1.8977597
N           5.0272386     1.2307580     0.2022729
H           5.0896066     2.2405964     0.2668722
C           4.2513091     0.7730395    -0.8670988
C           4.1613968    -0.6771179    -0.9703232
C           4.7923970    -1.4662737    -0.0449714
H           4.7112854    -2.5473447    -0.1322339
C           5.5527107    -0.9172551     1.0282642
H           6.0443456    -1.5556519     1.7521892
C          -0.2324857    -1.3354913    -1.6950750
H          -1.1493366    -1.8773354    -1.5041868
N           0.9881663    -1.9763231    -1.7063482
C           1.8714195    -1.0318305    -1.9743389
N           1.2709214     0.1819243    -2.1557021
H           1.7982995     1.0454663    -2.2443819
C          -0.0814604     0.0036580    -1.9611221
H          -0.7863045     0.8180767    -2.0376741
O           3.7175861     1.5933363    -1.6278975
22
107_C9H9N3O_8-0-16-17 (90,) energy =    -587.8649418
C           3.3656015    -1.1693344    -2.1513585
H           3.6789850    -0.6384898    -3.0573681
H           3.5529440    -2.2368966    -2.2980531
C           5.6247248     0.4023203     1.1637169
H           6.1643435     0.8994223     1.9620017
N           5.0003482     1.2162539     0.2592376
H           5.0514019     2.2241385     0.3550022
C           4.2466708     0.7793620    -0.8356142
C           4.1743708    -0.6696428    -0.9760162
C           4.8025241    -1.4801136    -0.0696148
H           4.7315800    -2.5589923    -0.1872800
C           5.5440835    -0.9509847     1.0276514
H           6.0350533    -1.6030709     1.7397880
C          -0.1943447    -1.2988369    -1.5299958
H          -1.0821484    -1.8242513    -1.2038436
N           1.0482477    -1.8942967    -1.4766995
C           1.8850643    -0.9909699    -1.9514424
N           1.2308627     0.1442773    -2.3426268
H           1.7149295     1.0103762    -2.5500898
C          -0.1052680    -0.0305765    -2.0486169
H          -0.8422844     0.7341535    -2.2429726
O           3.7160200     1.6063103    -1.5884060
22
107_C9H9N3O_8-0-16-17 (105,) energy =    -587.8620252
C           3.3673788    -1.0926778    -2.1686550
H           3.6629382    -0.5126155    -3.0492706
H           3.5683114    -2.1491913    -2.3732630
C           5.6229779     0.3527162     1.2000817
H           6.1592787     0.8203966     2.0182738
N           5.0137923     1.1994146     0.3153233
H           5.0724930     2.2033545     0.4418988
C           4.2653535     0.8011894    -0.7999014
C           4.1822401    -0.6435681    -0.9797301
C           4.7954233    -1.4866599    -0.0946126
H           4.7130432    -2.5609246    -0.2427344
C           5.5337047    -0.9952528     1.0230196
H           6.0131071    -1.6717670     1.7200948
C          -0.1583465    -1.2367723    -1.3737321
H          -1.0058141    -1.7222896    -0.9082308
N           1.1143488    -1.7538619    -1.2572413
C           1.8884823    -0.9321288    -1.9397547
N           1.1617900     0.0691476    -2.5235993
H           1.5757314     0.9021051    -2.9212559
C          -0.1536645    -0.0987941    -2.1408618
H          -0.9347203     0.5775941    -2.4539511
O           3.7482510     1.6477553    -1.5360836
22
107_C9H9N3O_8-0-16-17 (120,) energy =    -587.8596244
C           3.3702314    -0.9875649    -2.1869727
H           3.6507621    -0.3520431    -3.0336464
H           3.5954636    -2.0260570    -2.4558068
C           5.6221903     0.2943134     1.2480420
H           6.1584580     0.7208013     2.0885919
N           5.0481116     1.1852102     0.3840431
H           5.1299668     2.1825215     0.5447697
C           4.3029679     0.8450022    -0.7549087
C           4.1849806    -0.5911615    -0.9809037
C           4.7640258    -1.4784079    -0.1165727
H           4.6528990    -2.5447969    -0.2984920
C           5.5011670    -1.0442906     1.0254466
H           5.9520802    -1.7559250     1.7063675
C          -0.1209490    -1.1641105    -1.2537866
H          -0.9228010    -1.5890731    -0.6646654
N           1.1848714    -1.5680547    -1.0807668
C           1.8895568    -0.8620497    -1.9440652
N           1.0840150    -0.0428216    -2.6866574
H           1.4136576     0.6822704    -3.3081772
C          -0.2101307    -0.2108144    -2.2366638
H          -1.0397273     0.3419966    -2.6509581
O           3.8205819     1.7264729    -1.4693872
22
107_C9H9N3O_8-0-16-17 (135,) energy =    -587.8591468
C           2.1808055     0.3252144    -0.4649854
H           1.6906355     0.0128293     0.4643155
H           1.9793147     1.4060982    -0.5323397
C           6.4094099    -0.1338524     0.2531040
H           7.4511829    -0.2131872     0.5443720
N           5.5293400     0.2053073     1.2424464
H           5.8553921     0.3704178     2.1876289
C           4.1451030     0.3710584     1.0792412
C           3.6720209     0.1316262    -0.2808481
C           4.5564011    -0.2078637    -1.2701874
H           4.1739316    -0.3663716    -2.2742306
C           5.9530721    -0.3477690    -1.0120030
H           6.6418316    -0.6155318    -1.8043422
C           0.9891692    -1.0818201    -3.5893157
H           1.0777300    -1.2428774    -4.6552244
N           1.9400331    -0.3683627    -2.8926516
C           1.5414287    -0.3659108    -1.6327583
N           0.3585899    -1.0454657    -1.5021612
H          -0.1483708    -1.1879441    -0.6403830
C          -0.0056097    -1.5108581    -2.7497205
H          -0.9061665    -2.0838451    -2.9103847
O           3.4455556     0.6888159     2.0434340
22
107_C9H9N3O_8-0-16-17 (150,) energy =    -587.8586319
C           2.2020943     0.1666620    -0.3908619
H           1.7524585    -0.2564273     0.5165454
H           1.9315725     1.2343772    -0.3462482
C           6.4595043    -0.0243025     0.2577676
H           7.5079304    -0.0322862     0.5355559
N           5.5761093     0.3204004     1.2423523
H           5.9047336     0.5533427     2.1722068
C           4.1834420     0.4008423     1.0927075
C           3.7040067     0.0647303    -0.2448644
C           4.5918049    -0.2789513    -1.2300712
H           4.2062347    -0.5077742    -2.2185258
C           5.9974006    -0.3297498    -0.9860499
H           6.6886639    -0.6022692    -1.7746284
C           1.0249879    -1.1014359    -3.5844388
H           1.1539929    -1.2898249    -4.6416176
N           2.0290784    -0.5302204    -2.8328476
C           1.5620516    -0.4511442    -1.5997321
N           0.2831464    -0.9429879    -1.5400732
H          -0.2913870    -0.9971424    -0.7111987
C          -0.0711969    -1.3645496    -2.8059675
H          -1.0353566    -1.8007809    -3.0186983
O           3.4788154     0.7313059     2.0490907
22
107_C9H9N3O_8-0-16-17 (165,) energy =    -587.8580375
C           2.1801245    -0.0225531    -0.3490133
H           1.7834761    -0.5638515     0.5215205
H           1.8351586     1.0115321    -0.1869011
C           6.4470950     0.0831912     0.2414598
H           7.4963808     0.1499633     0.5078550
N           5.5524427     0.4042864     1.2239900
H           5.8729072     0.6881548     2.1424449
C           4.1567456     0.3878771     1.0873522
C           3.6863999    -0.0194514    -0.2340220
C           4.5856100    -0.3397553    -1.2172568
H           4.2077493    -0.6279073    -2.1924679
C           5.9936843    -0.2923429    -0.9860558
H           6.6936292    -0.5477697    -1.7727369
C           1.0364708    -1.1922795    -3.5981849
H           1.2008206    -1.4306361    -4.6401559
N           2.0660271    -0.7496434    -2.7950881
C           1.5423888    -0.5609930    -1.5979058
N           0.2030631    -0.8607531    -1.6104413
H          -0.4241231    -0.8026668    -0.8208846
C          -0.1310667    -1.2677128    -2.8867965
H          -1.1342744    -1.5654907    -3.1515594
O           3.4399651     0.7013694     2.0406192
22
107_C9H9N3O_8-0-16-17 (180,) energy =    -587.8577370
C           2.1742261    -0.1638727    -0.2726310
H           1.8439681    -0.8201694     0.5473171
H           1.7724699     0.8202531     0.0135135
C           6.4413110     0.1797534     0.2129758
H           7.4911575     0.3048741     0.4550999
N           5.5520031     0.4696395     1.2098944
H           5.8770599     0.7824144     2.1172819
C           4.1568333     0.3750483     1.1053757
C           3.6797133    -0.0750565    -0.1997588
C           4.5735503    -0.3648086    -1.1975099
H           4.1907804    -0.6965443    -2.1566519
C           5.9817607    -0.2387214    -0.9982078
H           6.6772314    -0.4713540    -1.7958580
C           1.0101101    -1.2789883    -3.5370691
H           1.1822151    -1.6036725    -4.5541192
N           2.0597363    -0.9615160    -2.7008204
C           1.5189850    -0.6086934    -1.5498214
N           0.1502400    -0.6909872    -1.6208113
H          -0.4964664    -0.4717119    -0.8765474
C          -0.1856312    -1.1183500    -2.8901992
H          -1.2106521    -1.2643361    -3.1955149
O           3.4449577     0.6623452     2.0705575
