25
106_C11H12N2_20-0-12-10 (-165,) energy =    -535.8988826
C           2.1620218    -1.4209916    -0.0493130
H           2.3784279    -2.4921467     0.0820606
C           1.1705070    -1.0037195     1.0569783
H           0.2577965    -1.6054145     1.0039990
H           0.8888486     0.0450072     0.9346781
H           1.6236725    -1.1340666     2.0443965
C           5.8974551     0.7408210     0.4967962
H           6.8274161     1.2822717     0.6485360
C           5.5364203    -0.2942376     1.3626405
H           6.1846283    -0.5629450     2.1929022
C           4.3430538    -0.9865907     1.1637493
H           4.0720186    -1.7935056     1.8420519
C           3.4907845    -0.6686233     0.0957615
C           3.8579765     0.3774416    -0.7587063
H           3.2008315     0.6581698    -1.5764784
C           5.0527920     1.0743951    -0.5613925
H           5.3195398     1.8827400    -1.2374842
C           0.3139749    -0.6013911    -3.0626461
H          -0.4660291    -0.0559462    -3.5765790
N           0.5245767    -0.4434035    -1.7094215
C           1.5263451    -1.2456549    -1.4039073
N           1.9673238    -1.9160558    -2.5169358
H           2.7378461    -2.5681888    -2.5507613
C           1.1979858    -1.5079517    -3.5882787
H           1.3451579    -1.8980496    -4.5842163
25
106_C11H12N2_20-0-12-10 (-150,) energy =    -535.9001555
C           2.1162293    -1.3602294    -0.0967557
H           2.2561645    -2.4223934     0.1569670
C           1.1163854    -0.7723558     0.9197570
H           0.1500825    -1.2779345     0.8454749
H           0.9530333     0.2916622     0.7261222
H           1.5073245    -0.8857908     1.9358132
C           5.9510131     0.6151317     0.4229667
H           6.9050732     1.1141324     0.5702085
C           5.6268163    -0.5174835     1.1720865
H           6.3274528    -0.9053358     1.9070951
C           4.4022848    -1.1567497     0.9774929
H           4.1570921    -2.0396583     1.5648193
C           3.4820979    -0.6846815     0.0312367
C           3.8153067     0.4591443    -0.7075879
H           3.1100421     0.8512864    -1.4355228
C           5.0398275     1.1016533    -0.5156116
H           5.2799197     1.9861445    -1.1001440
C           0.2621348    -1.0473203    -3.2015613
H          -0.6355897    -0.7878522    -3.7463623
N           0.3402304    -0.8891467    -1.8343050
C           1.5486884    -1.2931385    -1.4926872
N           2.2499350    -1.7131154    -2.5952314
H           3.2113702    -2.0224669    -2.6004828
C           1.4353118    -1.5538074    -3.6981445
H           1.7620839    -1.8065382    -4.6957466
25
106_C11H12N2_20-0-12-10 (-135,) energy =    -535.9009731
C           2.0663329    -1.2877810    -0.0777895
H           2.1549441    -2.3325880     0.2574997
C           1.0555062    -0.5924555     0.8556919
H           0.0707565    -1.0570439     0.7637558
H           0.9520420     0.4654967     0.5954270
H           1.3959256    -0.6623188     1.8937725
C           5.9844628     0.5313690     0.3667002
H           6.9609874     0.9917083     0.4907869
C           5.6977538    -0.6868699     0.9831862
H           6.4506732    -1.1817368     1.5911763
C           4.4423609    -1.2758652     0.8187117
H           4.2256045    -2.2259049     1.3030310
C           3.4540042    -0.6626490     0.0384810
C           3.7539625     0.5641168    -0.5736471
H           2.9990135     1.0572233    -1.1811753
C           5.0070409     1.1551987    -0.4123040
H           5.2200990     2.1055594    -0.8949709
C           0.2955197    -1.3088885    -3.2455329
H          -0.6152805    -1.2115746    -3.8210108
N           0.3019445    -1.1228871    -1.8799975
C           1.5512407    -1.3085491    -1.4974785
N           2.3481381    -1.6141121    -2.5710883
H           3.3480953    -1.7523396    -2.5394588
C           1.5535152    -1.6116878    -3.6995028
H           1.9510906    -1.8112307    -4.6833415
25
106_C11H12N2_20-0-12-10 (-120,) energy =    -535.9011523
C           2.0121136    -1.2070648    -0.0317353
H           2.0630795    -2.2314609     0.3678828
C           0.9914085    -0.4363546     0.8272517
H           0.0021737    -0.8906131     0.7333272
H           0.9107063     0.6056270     0.5020479
H           1.2994124    -0.4483793     1.8777288
C           6.0075154     0.4637237     0.2971333
H           7.0058027     0.8838937     0.3851807
C           5.7417575    -0.8214492     0.7687630
H           6.5324869    -1.4099032     1.2268548
C           4.4565203    -1.3574781     0.6532195
H           4.2556031    -2.3597177     1.0260689
C           3.4170922    -0.6214248     0.0714173
C           3.7000113     0.6688582    -0.4044659
H           2.9094129     1.2528429    -0.8694039
C           4.9810324     1.2073895    -0.2914743
H           5.1790438     2.2092482    -0.6636880
C           0.3277441    -1.4703418    -3.2356363
H          -0.5747894    -1.4742591    -3.8321076
N           0.2851918    -1.2540065    -1.8755460
C           1.5382231    -1.3082283    -1.4640774
N           2.3848004    -1.5567816    -2.5129165
H           3.3921633    -1.5997158    -2.4547206
C           1.6192872    -1.6589755    -3.6566623
H           2.0563959    -1.8411402    -4.6269633
25
106_C11H12N2_20-0-12-10 (-105,) energy =    -535.9007675
C           1.9798243    -1.1455446     0.0110727
H           2.0080081    -2.1440098     0.4739192
C           0.9252316    -0.3273698     0.7776990
H          -0.0556416    -0.7966308     0.6727306
H           0.8448271     0.6909722     0.3850756
H           1.1891871    -0.2705928     1.8387245
C           6.0186155     0.4359969     0.2696932
H           7.0299589     0.8286402     0.3317733
C           5.7626269    -0.8992270     0.5800093
H           6.5736902    -1.5550242     0.8857824
C           4.4594369    -1.3977912     0.5015086
H           4.2658684    -2.4387980     0.7523456
C           3.3913931    -0.5752623     0.1195948
C           3.6663035     0.7632651    -0.2013810
H           2.8577927     1.4168352    -0.5178066
C           4.9647326     1.2655340    -0.1226389
H           5.1549686     2.3067124    -0.3700374
C           0.4265906    -1.6434006    -3.2315812
H          -0.4532021    -1.7242359    -3.8560108
N           0.3249232    -1.3734234    -1.8844787
C           1.5645853    -1.3386243    -1.4316805
N           2.4591607    -1.5808505    -2.4404175
H           3.4646418    -1.5680186    -2.3454753
C           1.7405594    -1.7740872    -3.6027090
H           2.2204769    -1.9712954    -4.5495174
25
106_C11H12N2_20-0-12-10 (-90,) energy =    -535.9001029
C           2.8318537    -1.7108040    -1.1497821
H           3.1989747    -1.9532885    -2.1590237
C           2.6966528    -3.0444475    -0.3956142
H           1.9893212    -3.6900992    -0.9207854
H           2.3100031    -2.8994153     0.6179315
H           3.6672552    -3.5472206    -0.3310552
C           5.6630030     1.1429414     0.5056080
H           6.3668638     1.8637423     0.9127912
C           5.5254393     0.9964746    -0.8751223
H           6.1233748     1.6015936    -1.5516847
C           4.6235684     0.0636059    -1.3919990
H           4.5313399    -0.0543643    -2.4700322
C           3.8449666    -0.7405852    -0.5460403
C           3.9875337    -0.5744220     0.8390094
H           3.3909851    -1.1747165     1.5194112
C           4.8909298     0.3530889     1.3598358
H           4.9902578     0.4594081     2.4369786
C          -0.6202532    -0.7222017    -1.6795943
H          -1.6588338    -0.9740817    -1.8482805
N           0.3345171    -1.7006009    -1.5105400
C           1.4741795    -1.0600952    -1.3248976
N           1.2853330     0.2952979    -1.3704573
H           2.0054557     0.9902875    -1.2336893
C          -0.0565831     0.5254886    -1.5962112
H          -0.4653616     1.5224679    -1.6637365
25
106_C11H12N2_20-0-12-10 (-75,) energy =    -535.8997118
C           2.8243579    -1.7843731    -1.1188837
H           3.2213156    -2.1814930    -2.0612397
C           2.5343400    -2.9944896    -0.2084885
H           1.8527307    -3.6764476    -0.7240153
H           2.0531602    -2.6933890     0.7285256
H           3.4569076    -3.5339439     0.0333762
C           5.7266908     1.0911764     0.3697447
H           6.4511602     1.8165145     0.7300946
C           5.4501931     0.9910161    -0.9966850
H           5.9594799     1.6387682    -1.7054876
C           4.5231738     0.0576216    -1.4553160
H           4.3102594    -0.0129700    -2.5198082
C           3.8547925    -0.8004781    -0.5666159
C           4.1399465    -0.6873875     0.8001333
H           3.6479332    -1.3412935     1.5137589
C           5.0684246     0.2499284     1.2649477
H           5.2777720     0.3151232     2.3295941
C          -0.3777997    -0.6180624    -2.3509410
H          -1.2367560    -0.7300087    -2.9991580
N           0.6681324    -1.5140558    -2.3889616
C           1.5362755    -1.0855339    -1.4914222
N           1.0837534     0.0498606    -0.8741302
H           1.5922579     0.5818935    -0.1822009
C          -0.1439103     0.3638537    -1.4217751
H          -0.7059640     1.2324651    -1.1132712
25
106_C11H12N2_20-0-12-10 (-60,) energy =    -535.8993667
C           2.7804753    -1.8146555    -1.1019370
H           3.2020298    -2.2796301    -2.0022490
C           2.3959893    -2.9591709    -0.1441092
H           1.6877188    -3.6249473    -0.6447096
H           1.9148613    -2.5822850     0.7656784
H           3.2754136    -3.5443082     0.1470685
C           5.7433861     1.0129851     0.3674057
H           6.4846071     1.7242563     0.7217524
C           5.2913430     1.0655175    -0.9545669
H           5.6805764     1.8185664    -1.6349049
C           4.3417540     0.1520036    -1.4053033
H           3.9925698     0.2003989    -2.4343634
C           3.8246685    -0.8397976    -0.5538624
C           4.2837270    -0.8781513     0.7679788
H           3.9083181    -1.6315621     1.4530742
C           5.2359989     0.0393598     1.2249042
H           5.5795881    -0.0134156     2.2548104
C          -0.2703581    -0.5819728    -2.6186959
H          -1.0528039    -0.6588503    -3.3618371
N           0.7805983    -1.4730910    -2.5912205
C           1.5434011    -1.0937169    -1.5829275
N           1.0166073     0.0047458    -0.9562416
H           1.4471333     0.5067041    -0.1927561
C          -0.1461884     0.3469451    -1.6170127
H          -0.7445463     1.1968356    -1.3249475
25
106_C11H12N2_20-0-12-10 (-45,) energy =    -535.8986522
C           2.7770870    -1.8068365    -0.9840628
H           3.1977199    -2.3537560    -1.8383299
C           2.3419069    -2.8621436     0.0522668
H           1.5804002    -3.5110188    -0.3893959
H           1.9144543    -2.3976981     0.9485947
H           3.1844814    -3.4905687     0.3602620
C           5.8203614     1.0153016     0.3380495
H           6.5816528     1.7222017     0.6568433
C           5.1702598     1.1829704    -0.8874629
H           5.4243443     2.0224970    -1.5294680
C           4.1925693     0.2765722    -1.2919396
H           3.6936138     0.4161296    -2.2477916
C           3.8448537    -0.8246274    -0.4904086
C           4.5017884    -0.9768078     0.7370070
H           4.2567430    -1.8104587     1.3868686
C           5.4817025    -0.0674689     1.1469220
H           5.9774046    -0.2100603     2.1037640
C          -0.1464940    -0.5903275    -2.7430182
H          -0.8503854    -0.6560275    -3.5618490
N           0.9236580    -1.4539154    -2.6478588
C           1.5724484    -1.0999842    -1.5542104
N           0.9527547    -0.0437983    -0.9379408
H           1.2920364     0.4415781    -0.1197669
C          -0.1485130     0.2973554    -1.6974685
H          -0.7991812     1.1166531    -1.4307946
25
106_C11H12N2_20-0-12-10 (-30,) energy =    -535.8975520
C           2.7668152    -1.7855146    -0.8857799
H           3.1805327    -2.4131122    -1.6864094
C           2.2816028    -2.7359545     0.2302209
H           1.4756785    -3.3692234    -0.1522361
H           1.9007119    -2.1819183     1.0962910
H           3.0846178    -3.3940660     0.5766458
C           5.9043853     1.0012993     0.3000179
H           6.6888010     1.6959248     0.5882669
C           5.0765914     1.2828144    -0.7880194
H           5.2138263     2.1997362    -1.3555166
C           4.0675953     0.3919546    -1.1532618
H           3.4370276     0.6217769    -2.0075318
C           3.8640153    -0.8052215    -0.4476486
C           4.7028198    -1.0726312     0.6435707
H           4.5756597    -1.9839945     1.2186624
C           5.7131418    -0.1816968     1.0127201
H           6.3488969    -0.4156897     1.8628685
C           0.0032381    -0.5646901    -2.8839220
H          -0.5973595    -0.5964147    -3.7830209
N           1.0950910    -1.3912616    -2.7232179
C           1.5948858    -1.0985398    -1.5375189
N           0.8574017    -0.1167948    -0.9257512
H           1.0697571     0.3159137    -0.0382786
C          -0.1632651     0.2386405    -1.7851896
H          -0.8822383     1.0052491    -1.5377610
25
106_C11H12N2_20-0-12-10 (-15,) energy =    -535.8967114
C           2.7473517    -1.7756587    -0.7989757
H           3.1618462    -2.4819519    -1.5299097
C           2.2152366    -2.6012543     0.3954869
H           1.4149568    -3.2683574     0.0604038
H           1.8146349    -1.9541325     1.1849046
H           2.9987076    -3.2201244     0.8419169
C           5.9669355     0.9690665     0.2681687
H           6.7734761     1.6482872     0.5309206
C           4.9875038     1.3556399    -0.6458189
H           5.0277269     2.3399838    -1.1053206
C           3.9503218     0.4826786    -0.9805412
H           3.2069988     0.7971955    -1.7064848
C           3.8657227    -0.7959312    -0.4103161
C           4.8644975    -1.1729519     0.5010798
H           4.8429374    -2.1596296     0.9538149
C           5.9023545    -0.3035268     0.8371787
H           6.6617838    -0.6238300     1.5459704
C           0.1339773    -0.5975861    -3.0131984
H          -0.3691919    -0.6134337    -3.9705859
N           1.2440872    -1.3798566    -2.7753123
C           1.6036185    -1.1258522    -1.5315416
N           0.7574671    -0.2100327    -0.9576236
H           0.8412642     0.1753688    -0.0280294
C          -0.1868782     0.1398044    -1.9027456
H          -0.9686782     0.8553366    -1.6962156
25
106_C11H12N2_20-0-12-10 (0,) energy =    -535.8972535
C           2.7896369    -1.7363612    -0.8412289
H           3.2855494    -2.2747406    -1.6634808
C           2.3397968    -2.7813684     0.2032594
H           1.6773831    -3.5215620    -0.2569605
H           1.7879152    -2.2893120     1.0078305
H           3.1988187    -3.3045966     0.6330381
C           5.8064061     0.9796708     0.7414722
H           6.5692062     1.6492370     1.1298573
C           4.6120993     1.4894264     0.2346888
H           4.4371442     2.5622832     0.2265246
C           3.6321522     0.6287939    -0.2667674
H           2.7020374     1.0427080    -0.6432337
C           3.8206873    -0.7581836    -0.2567648
C           5.0334737    -1.2572406     0.2434846
H           5.2181011    -2.3290045     0.2383050
C           6.0143586    -0.4014029     0.7417495
H           6.9437442    -0.8136388     1.1265101
C          -0.3377567    -0.1061148    -1.6899892
H          -1.3209083     0.2553030    -1.4198524
N           0.4705184    -0.7362404    -0.7689706
C           1.5759582    -1.0530028    -1.4157085
N           1.5051006    -0.6472526    -2.7242158
H           2.2270248    -0.7615569    -3.4212671
C           0.2809936    -0.0364005    -2.9118423
H          -0.0218115     0.3649490    -3.8672552
25
106_C11H12N2_20-0-12-10 (15,) energy =    -535.8987836
C           2.7254650    -1.7423817    -0.7968307
H           3.2128236    -2.3641038    -1.5628859
C           2.2313922    -2.6812571     0.3244865
H           1.5428504    -3.4321171    -0.0757307
H           1.6978843    -2.1082833     1.0868128
H           3.0769628    -3.1923876     0.7949641
C           5.7967188     0.9601746     0.6848129
H           6.5718256     1.6268109     1.0533552
C           4.5314849     1.4560743     0.3722535
H           4.3147105     2.5138770     0.4977595
C           3.5353498     0.6010580    -0.1063454
H           2.5507974     0.9976530    -0.3356867
C           3.7847970    -0.7664821    -0.2689010
C           5.0642625    -1.2517808     0.0404617
H           5.2829562    -2.3091557    -0.0965801
C           6.0606879    -0.4012147     0.5165184
H           7.0446919    -0.7997774     0.7502601
C          -0.3462957    -0.1261303    -1.8524597
H          -1.3585144     0.2027399    -1.6592230
N           0.3854536    -0.7912316    -0.8921009
C           1.5536392    -1.0541544    -1.4462469
N           1.5978671    -0.5791176    -2.7325703
H           2.3886429    -0.6334590    -3.3585508
C           0.3841896     0.0205277    -3.0035190
H           0.1644311     0.4682514    -3.9610915
25
106_C11H12N2_20-0-12-10 (30,) energy =    -535.8999630
C           2.6511044    -1.7532929    -0.7382322
H           3.1193953    -2.4752813    -1.4243217
C           2.0940312    -2.5476889     0.4604308
H           1.3461813    -3.2737005     0.1293194
H           1.6126757    -1.8749896     1.1753537
H           2.9069208    -3.0756322     0.9690096
C           5.8004674     0.9360536     0.5820433
H           6.5918178     1.6012756     0.9170078
C           4.4929000     1.4066962     0.4540268
H           4.2609419     2.4418533     0.6912798
C           3.4763755     0.5544436     0.0184014
H           2.4608652     0.9298385    -0.0748296
C           3.7482370    -0.7853400    -0.2884693
C           5.0667700    -1.2441882    -0.1620908
H           5.2972372    -2.2792967    -0.4074878
C           6.0849341    -0.3953264     0.2721993
H           7.1005835    -0.7720795     0.3624863
C          -0.3762677    -0.3028774    -2.1193362
H          -1.4410121    -0.1164768    -2.0794157
N           0.2615671    -1.0235017    -1.1318990
C           1.5322447    -1.0701974    -1.4828046
N           1.7335892    -0.4062388    -2.6669663
H           2.6248085    -0.2598789    -3.1190736
C           0.5157456     0.0946455    -3.0813894
H           0.4076262     0.6626499    -3.9932647
25
106_C11H12N2_20-0-12-10 (45,) energy =    -535.9008836
C           2.5857214    -1.7436965    -0.6606490
H           3.0275445    -2.5504006    -1.2654373
C           1.9649373    -2.3973570     0.5902829
H           1.1616625    -3.0810632     0.3050348
H           1.5381801    -1.6375449     1.2521874
H           2.7323541    -2.9479602     1.1437339
C           5.8336134     0.9097728     0.4695859
H           6.6478313     1.5680976     0.7603895
C           4.5101931     1.3484617     0.5537236
H           4.2906475     2.3508284     0.9123537
C           3.4645860     0.5051394     0.1773123
H           2.4375014     0.8551395     0.2453431
C           3.7212017    -0.7943806    -0.2855257
C           5.0532422    -1.2194175    -0.3701340
H           5.2704035    -2.2221337    -0.7328891
C           6.1024005    -0.3785377     0.0062183
H           7.1284757    -0.7295198    -0.0675577
C          -0.3493367    -0.5173427    -2.4080553
H          -1.4206434    -0.4910771    -2.5556281
N           0.2158159    -1.2705439    -1.4016541
C           1.5180563    -1.0797356    -1.4970012
N           1.8103318    -0.2329944    -2.5358114
H           2.7312929     0.1032022    -2.7783343
C           0.6185809     0.1385141    -3.1244196
H           0.5784161     0.8170304    -3.9633720
25
106_C11H12N2_20-0-12-10 (60,) energy =    -535.9011605
C           2.5395589    -1.7445641    -0.5549725
H           2.9664377    -2.6077978    -1.0881287
C           1.8664950    -2.2872831     0.7202055
H           1.0500199    -2.9634471     0.4556776
H           1.4439585    -1.4738486     1.3183539
H           2.5989749    -2.8229015     1.3326680
C           5.8460928     0.9128149     0.3762894
H           6.6743555     1.5740451     0.6163704
C           4.5367507     1.2809093     0.6977239
H           4.3432803     2.2308964     1.1892104
C           3.4738105     0.4326631     0.3904874
H           2.4580931     0.7302509     0.6396041
C           3.6967544    -0.8008972    -0.2419690
C           5.0132001    -1.1547940    -0.5618795
H           5.2044472    -2.1072277    -1.0519506
C           6.0815531    -0.3079648    -0.2554023
H           7.0955328    -0.6043283    -0.5111200
C          -0.2867156    -0.6418375    -2.5466475
H          -1.3379947    -0.6800126    -2.7990563
N           0.2281348    -1.3937687    -1.5132241
C           1.5171509    -1.1125336    -1.4723504
N           1.8496470    -0.2088581    -2.4477743
H           2.7662752     0.1915658    -2.5873083
C           0.6984291     0.1040870    -3.1416162
H           0.6929546     0.8109397    -3.9577430
25
106_C11H12N2_20-0-12-10 (75,) energy =    -535.9007182
C           2.5159540    -1.7448589    -0.4671938
H           2.9471544    -2.6478634    -0.9260025
C           1.7594134    -2.2017686     0.7927056
H           0.9525267    -2.8827825     0.5123974
H           1.3053399    -1.3556096     1.3174927
H           2.4424417    -2.7111513     1.4801855
C           5.8601924     0.9094128     0.3429067
H           6.6982070     1.5707907     0.5457202
C           4.6006916     1.1851776     0.8815981
H           4.4557544     2.0638979     1.5047186
C           3.5246955     0.3362250     0.6247427
H           2.5494137     0.5672190     1.0446140
C           3.6842391    -0.8071844    -0.1734501
C           4.9526525    -1.0704940    -0.7074861
H           5.0976747    -1.9570637    -1.3215465
C           6.0333960    -0.2214967    -0.4544139
H           7.0088353    -0.4491232    -0.8764217
C          -0.1565501    -0.7346499    -2.7061129
H          -1.1806602    -0.8047106    -3.0478006
N           0.2898306    -1.4693379    -1.6294664
C           1.5616899    -1.1487384    -1.4800164
N           1.9491545    -0.2361221    -2.4252664
H           2.8657046     0.1829607    -2.4922148
C           0.8532266     0.0401348    -3.2173227
H           0.8967996     0.7453315    -4.0336971
25
106_C11H12N2_20-0-12-10 (90,) energy =    -535.9000142
C           2.4599521    -1.7584173    -0.3994462
H           2.8873887    -2.6991762    -0.7789036
C           1.6292177    -2.1192456     0.8438278
H           0.8433010    -2.8239494     0.5632501
H           1.1369477    -1.2401189     1.2712681
H           2.2650953    -2.5724570     1.6115023
C           5.8512725     0.8723469     0.2984458
H           6.7024633     1.5266194     0.4663456
C           4.6745243     1.0458412     1.0294454
H           4.6064444     1.8386028     1.7699163
C           3.5812230     0.2044762     0.8173293
H           2.6741083     0.3569508     1.3942484
C           3.6417142    -0.8298152    -0.1273552
C           4.8327386    -0.9954916    -0.8505942
H           4.9051551    -1.8033706    -1.5762865
C           5.9273386    -0.1529987    -0.6449031
H           6.8403518    -0.3053454    -1.2146407
C          -0.0728101    -0.9081236    -2.8564280
H          -1.0558057    -1.0493890    -3.2857678
N           0.3375500    -1.6298028    -1.7573951
C           1.5635908    -1.2155778    -1.4948654
N           1.9552378    -0.2538189    -2.3872022
H           2.8447897     0.2245714    -2.3773244
C           0.9124311    -0.0466404    -3.2671760
H           0.9696615     0.6771557    -4.0662080
25
106_C11H12N2_20-0-12-10 (105,) energy =    -535.8996857
C           2.4196538    -1.7801280    -0.3484467
H           2.7913197    -2.7844796    -0.5859451
C           1.4671210    -1.9263775     0.8552242
H           0.6818619    -2.6452417     0.6062402
H           0.9791160    -0.9779470     1.1054349
H           2.0045428    -2.2839672     1.7406022
C           5.9118024     0.7376744     0.2647868
H           6.7900135     1.3615866     0.4073256
C           4.8031047     0.8826725     1.0966266
H           4.8123856     1.6215738     1.8937976
C           3.6750368     0.0752638     0.9166842
H           2.8275283     0.1961713     1.5844684
C           3.6357691    -0.8892333    -0.0981318
C           4.7605830    -1.0223415    -0.9289227
H           4.7467966    -1.7657948    -1.7230158
C           5.8866849    -0.2216339    -0.7515005
H           6.7469795    -0.3481312    -1.4036073
C           0.3375633    -1.2952383    -3.2741039
H          -0.3331598    -1.6829231    -4.0293144
N           0.8928025    -2.1197509    -2.3201604
C           1.6529758    -1.3392674    -1.5746472
N           1.6015039    -0.0423114    -2.0109966
H           2.1331253     0.7257801    -1.6265210
C           0.7632628    -0.0017192    -3.1070446
H           0.5659592     0.9123232    -3.6466521
25
106_C11H12N2_20-0-12-10 (120,) energy =    -535.8993670
C           2.3684700    -1.7844920    -0.3477194
H           2.7334046    -2.8061181    -0.5134138
C           1.3533174    -1.8525423     0.8096558
H           0.5502672    -2.5452869     0.5437297
H           0.8994188    -0.8750280     1.0089280
H           1.8267422    -2.2081612     1.7315947
C           5.8890567     0.6820533     0.3263916
H           6.7760533     1.2892525     0.4858149
C           4.8534332     0.6911679     1.2582157
H           4.9280096     1.3064095     2.1512306
C           3.7132910    -0.0936085     1.0549054
H           2.9231947    -0.0754763     1.7987616
C           3.5874975    -0.8981312    -0.0837415
C           4.6409373    -0.8968285    -1.0143594
H           4.5613904    -1.5169814    -1.9045197
C           5.7784623    -0.1187048    -0.8143027
H           6.5812594    -0.1389335    -1.5467865
C           0.4892548    -1.4645390    -3.4288764
H          -0.0891696    -1.9026224    -4.2313233
N           1.0373346    -2.2442338    -2.4335293
C           1.6728370    -1.4074596    -1.6344774
N           1.5476721    -0.1169778    -2.0769294
H           1.9894191     0.6906101    -1.6611384
C           0.7941746    -0.1414055    -3.2333920
H           0.5664614     0.7550591    -3.7902902
25
106_C11H12N2_20-0-12-10 (135,) energy =    -535.8987515
C           2.3668302    -1.6768636    -0.2808575
H           2.6992383    -2.7184690    -0.3808096
C           1.3316653    -1.6439322     0.8611403
H           0.4846108    -2.2844114     0.6001148
H           0.9506005    -0.6304543     1.0328891
H           1.7601291    -2.0133631     1.7990376
C           5.9803223     0.6719571     0.3420284
H           6.8910978     1.2457142     0.4909619
C           5.0474795     0.5521169     1.3700431
H           5.2265765     1.0323375     2.3286420
C           3.8763493    -0.1874556     1.1785544
H           3.1677606    -0.2669091     1.9964716
C           3.6119869    -0.8158724    -0.0446354
C           4.5652310    -0.6900194    -1.0701157
H           4.3854775    -1.1783538    -2.0248624
C           5.7342658     0.0439397    -0.8818599
H           6.4557784     0.1235622    -1.6909308
C           0.6115576    -1.5309151    -3.4462998
H           0.1090299    -2.0200375    -4.2700137
N           1.1781062    -2.2572633    -2.4208939
C           1.7037908    -1.3669857    -1.6004266
N           1.4883101    -0.0928359    -2.0579078
H           1.8451073     0.7518838    -1.6345149
C           0.7939582    -0.1861422    -3.2475917
H           0.5158324     0.6855343    -3.8207876
25
106_C11H12N2_20-0-12-10 (150,) energy =    -535.8977513
C           2.3593200    -1.6003063    -0.2107881
H           2.6510138    -2.6586424    -0.2330487
C           1.3104502    -1.4424511     0.9110270
H           0.4224353    -2.0327032     0.6668807
H           1.0038517    -0.3969556     1.0335363
H           1.6926841    -1.7988198     1.8728750
C           6.0664791     0.6244333     0.3393923
H           6.9995171     1.1652669     0.4729769
C           5.2404136     0.3632348     1.4316391
H           5.5268983     0.6986534     2.4251613
C           4.0406593    -0.3312600     1.2592883
H           3.4183317    -0.5215385     2.1276120
C           3.6353580    -0.7727245    -0.0078980
C           4.4844250    -0.5120527    -1.0962543
H           4.2052830    -0.8628030    -2.0860497
C           5.6835087     0.1792747    -0.9271942
H           6.3204225     0.3673736    -1.7877583
C           0.7657044    -1.6561640    -3.4633955
H           0.3731669    -2.1994886    -4.3124104
N           1.3599315    -2.3131587    -2.4067231
C           1.7251089    -1.3705713    -1.5585197
N           1.3778620    -0.1296851    -2.0288736
H           1.5981323     0.7514344    -1.5872067
C           0.7688726    -0.3006802    -3.2563759
H           0.4130960     0.5331106    -3.8429373
25
106_C11H12N2_20-0-12-10 (165,) energy =    -535.8968055
C           2.3028977    -1.5441672    -0.1511991
H           2.5392198    -2.6140258    -0.0830759
C           1.2495166    -1.2319380     0.9366789
H           0.3335960    -1.7975425     0.7399876
H           0.9963989    -0.1652498     0.9574519
H           1.6024401    -1.5087415     1.9343361
C           6.0888011     0.5636297     0.3526638
H           7.0375049     1.0782109     0.4793521
C           5.3702988     0.1243745     1.4651805
H           5.7581066     0.2919668     2.4667974
C           4.1512822    -0.5343135     1.3011956
H           3.6172782    -0.8706151     2.1845888
C           3.6159728    -0.7660788     0.0247100
C           4.3581148    -0.3318787    -1.0839191
H           3.9859306    -0.5209849    -2.0861586
C           5.5779844     0.3276813    -0.9233437
H           6.1300794     0.6534215    -1.8012733
C           0.8738982    -1.7926657    -3.4702177
H           0.5880599    -2.3797804    -4.3325532
N           1.4866325    -2.3736684    -2.3802076
C           1.6958226    -1.3945029    -1.5210198
N           1.2311427    -0.2025274    -2.0181147
H           1.3110571     0.6990065    -1.5701973
C           0.7072288    -0.4461993    -3.2725428
H           0.2820024     0.3387380    -3.8799150
25
106_C11H12N2_20-0-12-10 (180,) energy =    -535.8971261
C           2.2500446    -1.4977495    -0.0908699
H           2.5281991    -2.5626635    -0.0559313
C           1.2412572    -1.2383971     1.0499949
H           0.3694548    -1.8916676     0.9426933
H           0.8934855    -0.2033258     1.0109396
H           1.6943816    -1.4226300     2.0279843
C           5.8906665     0.8188327     0.5198639
H           6.7968022     1.3959926     0.6835222
C           5.4395356    -0.0753293     1.4933677
H           5.9938037    -0.1989597     2.4203326
C           4.2748196    -0.8112105     1.2824365
H           3.9430806    -1.5082446     2.0482849
C           3.5387651    -0.6813282     0.0941702
C           3.9984469     0.2238214    -0.8696497
H           3.4336802     0.3678754    -1.7852853
C           5.1641758     0.9654054    -0.6605326
H           5.4984543     1.6632993    -1.4240205
C           0.3621046    -0.4669683    -3.0118054
H          -0.3733750     0.1672412    -3.4882794
N           0.6594105    -0.3354655    -1.6729033
C           1.5733978    -1.2509792    -1.4145171
N           1.8744665    -1.9680086    -2.5448679
H           2.5508641    -2.7151023    -2.6118249
C           1.1039545    -1.4720063    -3.5777676
H           1.1499891    -1.8780908    -4.5770616
