19
248_C8H9NO_18-0-1-9 (-165,) energy =    -440.2596693
C           1.3939198    -1.8202275     0.3398647
N           2.7730382    -1.6907274     0.3659500
H           3.2232775    -2.5624533     0.6236321
C           5.3722020     1.6288198     0.1150927
H           6.0516298     2.4735906     0.0496836
C           4.1100094     1.7829380     0.6886929
H           3.8043726     2.7482999     1.0830846
C           3.2365462     0.6994733     0.7893685
H           2.2790342     0.8222277     1.2830195
C           3.6096071    -0.5532163     0.2822363
C           4.8811813    -0.7056041    -0.2924835
H           5.1713355    -1.6753633    -0.6888272
C           5.7565909     0.3748857    -0.3656134
H           6.7381878     0.2381595    -0.8111991
C           0.5662996    -0.6609641    -0.1867843
H           0.1486478    -0.0876154     0.6486753
H          -0.2735588    -1.0891128    -0.7388945
H           1.1282271     0.0201291    -0.8296852
O           0.8785188    -2.8684373     0.7004545
19
248_C8H9NO_18-0-1-9 (-150,) energy =    -440.2582054
C           1.3987432    -1.7903062     0.4036136
N           2.7797485    -1.7070905     0.2798242
H           3.2239463    -2.5540022     0.6215802
C           5.3738316     1.6258885     0.1368824
H           6.0516304     2.4736213     0.0979643
C           4.1107431     1.7607089     0.7130906
H           3.8025813     2.7132996     1.1355836
C           3.2393772     0.6727026     0.7800523
H           2.2801189     0.7794460     1.2748575
C           3.6166930    -0.5633567     0.2373197
C           4.8874610    -0.6956878    -0.3432499
H           5.1778376    -1.6521493    -0.7702179
C           5.7610756     0.3879844    -0.3820129
H           6.7431296     0.2672624    -0.8312263
C           0.5598083    -0.6891203    -0.2218718
H           0.0744344    -0.0998469     0.5636839
H          -0.2349013    -1.1739961    -0.7958372
H           1.1271325    -0.0193490    -0.8709755
O           0.8906984    -2.7561191     0.9523714
19
248_C8H9NO_18-0-1-9 (-135,) energy =    -440.2555880
C           1.3995561    -1.7041788     0.4093076
N           2.7725852    -1.6846011     0.1560273
H           3.2052776    -2.5116981     0.5602574
C           5.3994598     1.6307851     0.1517127
H           6.0850021     2.4731830     0.1469559
C           4.1329375     1.7568691     0.7221250
H           3.8295889     2.6974561     1.1739796
C           3.2519605     0.6744804     0.7449097
H           2.2883534     0.7728180     1.2341819
C           3.6247773    -0.5454607     0.1648090
C           4.8970501    -0.6684488    -0.4132456
H           5.1806859    -1.6118652    -0.8723023
C           5.7801148     0.4082994    -0.4073778
H           6.7643423     0.2951416    -0.8538503
C           0.5473331    -0.6784015    -0.3174019
H          -0.0410057    -0.1070439     0.4072777
H          -0.1625350    -1.2282043    -0.9445807
H           1.1236467     0.0047902    -0.9436962
O           0.9143445    -2.5537874     1.1376559
19
248_C8H9NO_18-0-1-9 (-120,) energy =    -440.2517332
C           1.3976727    -1.6249829     0.4815707
N           2.7494176    -1.6673603     0.0921795
H           3.1812503    -2.4817969     0.5260398
C           5.4273031     1.6115388     0.1774485
H           6.1246590     2.4440464     0.1939236
C           4.1648141     1.7392721     0.7557143
H           3.8760947     2.6710091     1.2347287
C           3.2683978     0.6688614     0.7509158
H           2.3074746     0.7667181     1.2465855
C           3.6232069    -0.5395237     0.1371896
C           4.8901870    -0.6634002    -0.4515079
H           5.1567668    -1.5972115    -0.9393855
C           5.7883460     0.4001695    -0.4182672
H           6.7690854     0.2862989    -0.8722790
C           0.5024872    -0.7071031    -0.3289660
H          -0.2145966    -0.2119522     0.3307994
H          -0.0681945    -1.3306908    -1.0279311
H           1.0592774     0.0323676    -0.9079241
O           0.9789668    -2.3278519     1.3831901
19
248_C8H9NO_18-0-1-9 (-105,) energy =    -440.2469161
C           1.3999782    -1.5425184     0.5582715
N           2.7214073    -1.6363062     0.0412406
H           3.1528953    -2.4538673     0.4725375
C           5.4655718     1.5892208     0.2121763
H           6.1784668     2.4078677     0.2471489
C           4.2044766     1.7281091     0.7901619
H           3.9314681     2.6548959     1.2877352
C           3.2878181     0.6749645     0.7608169
H           2.3285009     0.7819390     1.2580984
C           3.6218920    -0.5275247     0.1245598
C           4.8873520    -0.6622780    -0.4653544
H           5.1379542    -1.5900065    -0.9730238
C           5.8045402     0.3835689    -0.4081176
H           6.7838909     0.2605774    -0.8628803
C           0.4372458    -0.7522652    -0.3019795
H          -0.3779694    -0.3611556     0.3102545
H           0.0125123    -1.4302684    -1.0531751
H           0.9381684     0.0570642    -0.8396163
O           1.0838985    -2.0819700     1.5998609
19
248_C8H9NO_18-0-1-9 (-90,) energy =    -440.2417775
C           1.4158608    -1.4867804     0.5653547
N           2.6905805    -1.5638216    -0.0973215
H           3.1367582    -2.4230599     0.2246225
C           5.5203887     1.5732750     0.2615180
H           6.2538461     2.3703515     0.3399710
C           4.2330415     1.7453533     0.7674827
H           3.9577732     2.6783807     1.2521371
C           3.2883638     0.7205071     0.6810151
H           2.3060764     0.8604058     1.1217998
C           3.6225102    -0.4922105     0.0637006
C           4.9166186    -0.6610515    -0.4528486
H           5.1733339    -1.5950567    -0.9465933
C           5.8571414     0.3588846    -0.3428762
H           6.8566501     0.2066631    -0.7416850
C           0.3373483    -0.8189035    -0.2545212
H          -0.5034215    -0.5355796     0.3815577
H          -0.0115992    -1.5245332    -1.0190304
H           0.7328222     0.0527230    -0.7854169
O           1.2474064    -1.9232342     1.6830542
19
248_C8H9NO_18-0-1-9 (-75,) energy =    -440.2468253
C           1.2884520    -1.0863484     0.6182255
N           2.6659019    -1.4264901     0.4888406
H           2.7900979    -2.0448864    -0.3093748
C           5.6306792     1.5883371     0.2837258
H           6.3960562     2.3571479     0.2315803
C           4.6001751     1.6782757     1.2224645
H           4.5624900     2.5203418     1.9085724
C           3.6198204     0.6913201     1.3061576
H           2.8314553     0.7460821     2.0484449
C           3.6513011    -0.3954345     0.4204057
C           4.6846141    -0.4904403    -0.5205481
H           4.7180555    -1.3360108    -1.2053439
C           5.6695609     0.4948409    -0.5819631
H           6.4652881     0.4063559    -1.3169223
C           0.4334896    -1.4062275    -0.5960144
H          -0.6192070    -1.2592885    -0.3502298
H           0.5860568    -2.4434325    -0.9207237
H           0.7083580    -0.7559970    -1.4356408
O           0.8206815    -0.6933306     1.6658666
19
248_C8H9NO_18-0-1-9 (-60,) energy =    -440.2531971
C           1.2708587    -1.0123495     0.5423407
N           2.6319848    -1.3212679     0.3463300
H           2.7583705    -1.9275230    -0.4588771
C           5.7176996     1.5716518     0.3592331
H           6.5150749     2.3091159     0.3586878
C           4.6617283     1.6721805     1.2674517
H           4.6357967     2.4911134     1.9815547
C           3.6380107     0.7260277     1.2864626
H           2.8271485     0.7901273     2.0017185
C           3.6549091    -0.3291498     0.3631532
C           4.7153749    -0.4366771    -0.5464705
H           4.7369503    -1.2593421    -1.2591757
C           5.7403948     0.5078985    -0.5436769
H           6.5552742     0.4111887    -1.2562171
C           0.3446080    -1.5322524    -0.5458102
H          -0.6892846    -1.4443772    -0.2094251
H           0.5590085    -2.5819092    -0.7822866
H           0.4757629    -0.9518531    -1.4674430
O           0.8585563    -0.4907212     1.5604629
19
248_C8H9NO_18-0-1-9 (-45,) energy =    -440.2586209
C           1.2518378    -0.9538486     0.4735752
N           2.5982140    -1.2138518     0.2060981
H           2.7282417    -1.8198856    -0.5968157
C           5.7807191     1.5579281     0.4317383
H           6.6051768     2.2632442     0.4822342
C           4.6952761     1.6741318     1.3017532
H           4.6728474     2.4738092     2.0374841
C           3.6341838     0.7702678     1.2557776
H           2.7981806     0.8508625     1.9380592
C           3.6472470    -0.2597751     0.3040942
C           4.7384494    -0.3834321    -0.5677165
H           4.7567559    -1.1869804    -1.3021073
C           5.7971047     0.5196478    -0.5009107
H           6.6341700     0.4106223    -1.1853300
C           0.2862365    -1.6356023    -0.4853549
H          -0.7119994    -1.6295440    -0.0457657
H           0.5839441    -2.6702307    -0.6936876
H           0.2569209    -1.0972848    -1.4408456
O           0.8736877    -0.3280711     1.4484032
19
248_C8H9NO_18-0-1-9 (-30,) energy =    -440.2624416
C           1.2348487    -0.8879862     0.4434705
N           2.5616814    -1.0891597     0.0902976
H           2.6941334    -1.7138800    -0.6956735
C           5.8426541     1.5364858     0.5044953
H           6.6942387     2.2037535     0.6011860
C           4.7306108     1.6832329     1.3348647
H           4.7145605     2.4690425     2.0855645
C           3.6312301     0.8310191     1.2297346
H           2.7726752     0.9394667     1.8779574
C           3.6373010    -0.1821389     0.2594268
C           4.7558705    -0.3356258    -0.5735865
H           4.7667711    -1.1252721    -1.3230604
C           5.8493246     0.5176810    -0.4497448
H           6.7061279     0.3849969    -1.1049240
C           0.2456992    -1.6916492    -0.3903595
H          -0.6789733    -1.8061501     0.1772378
H           0.6313456    -2.6815279    -0.6596355
H           0.0183845    -1.1533810    -1.3188757
O           0.8808947    -0.1840051     1.3753953
19
248_C8H9NO_18-0-1-9 (-15,) energy =    -440.2645984
C           1.1925753    -0.9172755     0.3250989
N           2.4991010    -1.0351971    -0.1079801
H           2.6502442    -1.6889339    -0.8646118
C           5.8495687     1.4471450     0.5387484
H           6.7208583     2.0769328     0.6937475
C           4.6950713     1.6357296     1.2994481
H           4.6649989     2.4175322     2.0539144
C           3.5673644     0.8347123     1.1177046
H           2.6747605     0.9793393     1.7096228
C           3.5923894    -0.1754040     0.1438261
C           4.7536173    -0.3693683    -0.6209418
H           4.7784699    -1.1545629    -1.3747688
C           5.8717593     0.4359437    -0.4234541
H           6.7608686     0.2710802    -1.0261632
C           0.2127287    -1.8275586    -0.4044385
H          -0.5737364    -2.1219914     0.2932009
H           0.6807063    -2.7253988    -0.8221930
H          -0.2563888    -1.2717978    -1.2252079
O           0.8336763    -0.1692582     1.2218886
19
248_C8H9NO_18-0-1-9 (0,) energy =    -440.2652299
C           1.2130920    -0.9007859     0.3238371
N           2.4579571    -0.8636389    -0.2683141
H           2.5912891    -1.4756879    -1.0616410
C           5.9098029     1.3915289     0.6235260
H           6.8069043     1.9645100     0.8396234
C           4.7677747     1.5399806     1.4113933
H           4.7736984     2.2334981     2.2482582
C           3.6057148     0.8132891     1.1505581
H           2.7215211     0.9293619     1.7608744
C           3.5857331    -0.0851254     0.0724842
C           4.7335176    -0.2360660    -0.7221617
H           4.7212872    -0.9318824    -1.5594696
C           5.8848210     0.4963468    -0.4474313
H           6.7629165     0.3650413    -1.0740744
C           0.2558956    -1.9059503    -0.3051015
H          -0.7567568    -1.5019487    -0.2446575
H           0.2785409    -2.8379429     0.2719210
H           0.4889201    -2.1412199    -1.3490022
O           0.8907661    -0.2220498     1.2878633
19
248_C8H9NO_18-0-1-9 (15,) energy =    -440.2645984
C           1.1963418    -0.8765420     0.2978331
N           2.3848839    -0.7178411    -0.3881688
H           2.5272453    -1.3497601    -1.1647687
C           5.9231620     1.3241456     0.6681814
H           6.8416022     1.8431778     0.9267647
C           4.7611432     1.5278637     1.4134027
H           4.7724998     2.2109276     2.2587614
C           3.5707239     0.8736491     1.0951214
H           2.6701468     1.0343140     1.6706002
C           3.5446543    -0.0138155     0.0083852
C           4.7115389    -0.2183451    -0.7449222
H           4.6935407    -0.9032075    -1.5910977
C           5.8899302     0.4460463    -0.4165862
H           6.7831100     0.2735736    -1.0111152
C           0.2946103    -1.9665184    -0.2676221
H          -0.7453203    -1.6711085    -0.1153351
H           0.4635445    -2.8991670     0.2839734
H           0.4630282    -2.1627199    -1.3319394
O           0.8687497    -0.2044143     1.2640098
19
248_C8H9NO_18-0-1-9 (30,) energy =    -440.2624416
C           1.1808533    -0.7504233     0.3284100
N           2.3199478    -0.5149940    -0.4283399
H           2.4691133    -1.1811631    -1.1763613
C           5.9569628     1.2819617     0.7434666
H           6.8991219     1.7383746     1.0329672
C           4.7861626     1.5684661     1.4468969
H           4.8140792     2.2539791     2.2898701
C           3.5660941     0.9972667     1.0848094
H           2.6573670     1.2248880     1.6246993
C           3.5188850     0.1050412     0.0032490
C           4.6932436    -0.1812100    -0.7092450
H           4.6590288    -0.8678468    -1.5534832
C           5.9016654     0.4044677    -0.3407573
H           6.8014420     0.1694784    -0.9030382
C           0.3541248    -1.9353501    -0.1532918
H          -0.6719406    -1.8116382     0.1962614
H           0.7548791    -2.8649763     0.2694834
H           0.3565899    -2.0322464    -1.2449383
O           0.8269594    -0.0437188     1.2582973
19
248_C8H9NO_18-0-1-9 (45,) energy =    -440.2586212
C           1.1563891    -0.7180931     0.2689377
N           2.2514591    -0.3940258    -0.5369554
H           2.4093358    -1.0773623    -1.2696621
C           5.9433473     1.1895169     0.7753935
H           6.8973315     1.5925634     1.1028282
C           4.7658258     1.5252992     1.4457417
H           4.8003014     2.1960136     2.3002867
C           3.5320282     1.0241699     1.0314780
H           2.6165899     1.2937519     1.5414623
C           3.4762198     0.1499179    -0.0637205
C           4.6560665    -0.1851052    -0.7432905
H           4.6155519    -0.8564324    -1.5994139
C           5.8795481     0.3339374    -0.3254914
H           6.7846225     0.0625713    -0.8623537
C           0.4486287    -2.0035442    -0.1347899
H          -0.5342437    -2.0298213     0.3374304
H           1.0261829    -2.8750410     0.1977630
H           0.3297141    -2.0768470    -1.2224386
O           0.7359052     0.0133653     1.1479644
19
248_C8H9NO_18-0-1-9 (60,) energy =    -440.2531971
C           1.1383986    -0.6396455     0.2169187
N           2.2008950    -0.2489124    -0.6226894
H           2.3627489    -0.9357158    -1.3534294
C           5.9416741     1.1105532     0.8088417
H           6.9056056     1.4581506     1.1689462
C           4.7650205     1.4907711     1.4576571
H           4.8102939     2.1408110     2.3275221
C           3.5206481     1.0610937     0.9988765
H           2.6046901     1.3690421     1.4881486
C           3.4500101     0.2136669    -0.1160549
C           4.6279478    -0.1660564    -0.7732012
H           4.5770525    -0.8167263    -1.6445414
C           5.8642394     0.2839263    -0.3127750
H           6.7687472    -0.0203887    -0.8327277
C           0.5833608    -2.0251487    -0.0739858
H          -0.3582516    -2.1543395     0.4612592
H           1.2929819    -2.7960307     0.2510538
H           0.4100538    -2.1664759    -1.1480713
O           0.6237743     0.1183606     1.0164509
19
248_C8H9NO_18-0-1-9 (75,) energy =    -440.2468253
C           1.0922343    -0.5645901     0.1553022
N           2.1291492    -0.1072305    -0.7080304
H           2.2814826    -0.7889807    -1.4476281
C           5.9066755     1.0057178     0.8453400
H           6.8775770     1.2935891     1.2378591
C           4.7345821     1.4240846     1.4797046
H           4.7908043     2.0441266     2.3705617
C           3.4834890     1.0706254     0.9776874
H           2.5715080     1.4123176     1.4541825
C           3.3969868     0.2629297    -0.1654355
C           4.5701103    -0.1563434    -0.8058711
H           4.5085289    -0.7770300    -1.6980661
C           5.8155894     0.2192290    -0.3034833
H           6.7165774    -0.1132762    -0.8122431
C           0.7286516    -2.0311116    -0.0022355
H          -0.1683063    -2.2493128     0.5791604
H           1.5535719    -2.6659856     0.3438363
H           0.5440272    -2.2783069    -1.0554778
O           0.4665710     0.1948088     0.8643193
19
248_C8H9NO_18-0-1-9 (90,) energy =    -440.2417774
C           1.0486867    -0.5654028    -0.2660560
N           2.3191737    -0.6305087    -0.9380793
H           2.1989499    -0.1647126    -1.8378530
C           5.8182551     0.9386176     0.8708535
H           6.7241073     1.3318562     1.3227835
C           4.6382415     0.8578691     1.6083634
H           4.6161560     1.1966910     2.6407946
C           3.4666044     0.3646338     1.0302733
H           2.5485633     0.3527776     1.6097654
C           3.4710281    -0.0742673    -0.3004260
C           4.6620586    -0.0002160    -1.0393516
H           4.6720673    -0.3551105    -2.0669711
C           5.8190885     0.5125032    -0.4602601
H           6.7297613     0.5694748    -1.0507400
C           0.7634837    -1.7522612     0.6235903
H          -0.0541348    -1.5250559     1.3103512
H           1.6603046    -2.0527381     1.1744151
H           0.4779707    -2.6040913    -0.0065050
O           0.2928169     0.3699509    -0.4140230
19
248_C8H9NO_18-0-1-9 (105,) energy =    -440.2469161
C           1.0149990    -0.5794498    -0.3116419
N           2.2601521    -0.4930765    -0.9931178
H           2.1029007     0.0663880    -1.8314959
C           5.7991816     0.8710510     0.8984846
H           6.7141382     1.2165571     1.3708245
C           4.5987667     0.8661271     1.6074959
H           4.5709113     1.2175222     2.6354995
C           3.4160103     0.4360244     1.0022352
H           2.4810123     0.4845265     1.5521868
C           3.4320303    -0.0199232    -0.3222496
C           4.6423929    -0.0239115    -1.0311588
H           4.6554452    -0.3939106    -2.0529902
C           5.8116717     0.4315870    -0.4281539
H           6.7398355     0.4298047    -0.9934615
C           0.8918360    -1.7521319     0.6375889
H           0.1497414    -1.5339944     1.4083578
H           1.8515740    -2.0153435     1.0899301
H           0.5505763    -2.6233556     0.0640973
O           0.1243706     0.2229969    -0.5083316
19
248_C8H9NO_18-0-1-9 (120,) energy =    -440.2517332
C           1.0082506    -0.6513440    -0.3982240
N           2.2504067    -0.4358107    -1.0237624
H           2.0937990     0.1261342    -1.8590664
C           5.7907174     0.8238759     0.9278158
H           6.7058921     1.1463546     1.4157740
C           4.5844229     0.8182033     1.6273732
H           4.5529882     1.1461075     2.6629610
C           3.4014586     0.4185069     1.0026835
H           2.4619495     0.4645820     1.5447454
C           3.4232352    -0.0082019    -0.3315359
C           4.6389085    -0.0100050    -1.0310444
H           4.6546602    -0.3553201    -2.0613822
C           5.8093705     0.4160766    -0.4086072
H           6.7421723     0.4159143    -0.9661291
C           0.9745150    -1.7481796     0.6489641
H           0.3379867    -1.4437024     1.4837089
H           1.9666704    -2.0265377     1.0097274
H           0.5161044    -2.6326575     0.1899783
O           0.0193301    -0.0217642    -0.7267015
19
248_C8H9NO_18-0-1-9 (135,) energy =    -440.2556839
C           1.4830128    -1.8434577     0.0952521
N           2.7182652    -1.6083094     0.7247313
H           3.2191200    -2.4939176     0.7251919
C           5.3833525     1.6058145     0.0167677
H           6.0747103     2.4242910    -0.1613682
C           4.1398294     1.8482910     0.6019791
H           3.8616837     2.8579851     0.8919786
C           3.2532515     0.7992206     0.8457466
H           2.3095791     0.9896170     1.3453963
C           3.5916207    -0.5087181     0.4732482
C           4.8443649    -0.7509618    -0.1081074
H           5.1143942    -1.7644692    -0.3953891
C           5.7342164     0.2991813    -0.3274951
H           6.7011228     0.0937245    -0.7787992
C           0.5361864    -0.6720659    -0.0548309
H           0.2463840    -0.2781877     0.9254167
H          -0.3524096    -1.0174350    -0.5844743
H           1.0020531     0.1455071    -0.6150538
O           1.2136407    -2.9650498    -0.2991168
19
248_C8H9NO_18-0-1-9 (150,) energy =    -440.2584312
C           1.4553927    -1.8465219     0.1773242
N           2.7468515    -1.6247675     0.6611734
H           3.2356660    -2.5144828     0.6996253
C           5.3856391     1.6228169     0.0411257
H           6.0724050     2.4495833    -0.1149281
C           4.1385193     1.8434157     0.6269472
H           3.8529916     2.8440826     0.9401012
C           3.2568074     0.7841998     0.8428544
H           2.3116469     0.9596174     1.3444443
C           3.6037342    -0.5130224     0.4407021
C           4.8613809    -0.7331020    -0.1406139
H           5.1376226    -1.7382798    -0.4502757
C           5.7457900     0.3264870    -0.3319978
H           6.7157227     0.1371663    -0.7838440
C           0.5663136    -0.6458699    -0.0737445
H           0.2694224    -0.1797072     0.8725461
H          -0.3282967    -0.9958667    -0.5901813
H           1.0691663     0.1168449    -0.6763091
O           1.0798402    -2.9916728    -0.0169969
19
248_C8H9NO_18-0-1-9 (165,) energy =    -440.2598543
C           1.4120654    -1.8719500     0.2026075
N           2.7447766    -1.6736431     0.5444192
H           3.2186754    -2.5662619     0.6347776
C           5.3604437     1.6110763     0.0660931
H           6.0427484     2.4473127    -0.0551123
C           4.1062494     1.8026909     0.6466147
H           3.8106068     2.7901208     0.9908189
C           3.2295593     0.7311153     0.8180332
H           2.2792076     0.8842958     1.3167130
C           3.5894370    -0.5494411     0.3751068
C           4.8546562    -0.7405108    -0.2014480
H           5.1397569    -1.7325715    -0.5433177
C           5.7334127     0.3304417    -0.3472783
H           6.7090073     0.1633041    -0.7956608
C           0.5612359    -0.6646342    -0.1404772
H           0.2304056    -0.1572302     0.7731084
H          -0.3217425    -1.0260882    -0.6695785
H           1.0945795     0.0656099    -0.7554801
O           0.9624459    -3.0081605     0.1921144
19
248_C8H9NO_18-0-1-9 (180,) energy =    -440.2602035
C           1.3989979    -1.8566520     0.2640362
N           2.7626156    -1.6869306     0.4449301
H           3.2249081    -2.5749132     0.6065450
C           5.3670728     1.6197571     0.0960293
H           6.0477945     2.4612398     0.0063995
C           4.1056501     1.7907562     0.6667949
H           3.8020358     2.7669590     1.0352217
C           3.2306002     0.7120169     0.7979203
H           2.2744660     0.8493540     1.2899134
C           3.6003931    -0.5547194     0.3238324
C           4.8726093    -0.7248318    -0.2448321
H           5.1640738    -1.7055127    -0.6128157
C           5.7490695     0.3523335    -0.3492849
H           6.7302608     0.2012897    -0.7910993
C           0.5638462    -0.6628795    -0.1607468
H           0.1983799    -0.1224903     0.7201875
H          -0.3044986    -1.0499932    -0.6970972
H           1.1111480     0.0427348    -0.7908123
O           0.9058814    -2.9623458     0.4345565
