19
248_C8H9NO_0-1-9-10 (-165,) energy =    -440.2649364
C           1.1143121    -0.7816819     0.2545102
N           2.4258479    -0.9444296    -0.1424583
H           2.5972219    -1.6737551    -0.8212108
C           5.8389788     1.4292454     0.5743849
H           6.7264604     2.0306711     0.7489651
C           4.6877999     1.6288033     1.3374201
H           4.6764526     2.3908327     2.1123374
C           3.5389101     0.8650984     1.1300487
H           2.6455074     1.0262704     1.7163620
C           3.5408542    -0.1210296     0.1317255
C           4.6953575    -0.3192647    -0.6417854
H           4.6977898    -1.0791533    -1.4214304
C           5.8355985     0.4474136    -0.4179978
H           6.7205397     0.2775816    -1.0254464
C           0.1464776    -1.7765093    -0.3740677
H          -0.6187368    -2.0282057     0.3632962
H           0.6269514    -2.6964318    -0.7234705
H          -0.3551125    -1.3028970    -1.2261851
O           0.7351219     0.0851613     1.0276789
19
248_C8H9NO_0-1-9-10 (-150,) energy =    -440.2640174
C           1.1118707    -0.7474422     0.2004599
N           2.4450516    -1.0192018    -0.0439162
H           2.6316748    -1.7973923    -0.6622230
C           5.8152110     1.4490795     0.5498014
H           6.6904388     2.0756813     0.6955751
C           4.6979924     1.5927917     1.3740176
H           4.7013510     2.3356668     2.1672982
C           3.5676585     0.7934653     1.2039406
H           2.6989531     0.9139397     1.8360300
C           3.5521723    -0.1673095     0.1824902
C           4.6680573    -0.3043508    -0.6562205
H           4.6520396    -1.0402045    -1.4581714
C           5.7944021     0.4927093    -0.4667170
H           6.6524266     0.3696315    -1.1221461
C           0.1496773    -1.7638983    -0.4008683
H          -0.6994363    -1.8811532     0.2756691
H           0.6056337    -2.7430087    -0.5813469
H          -0.2334256    -1.3792396    -1.3535119
O           0.7198068     0.2186700     0.8356647
19
248_C8H9NO_0-1-9-10 (-135,) energy =    -440.2625429
C           1.1253931    -0.7100161     0.1301508
N           2.4589425    -1.0779424     0.0528790
H           2.6540370    -1.9103256    -0.4881383
C           5.7920814     1.4663297     0.5253637
H           6.6547897     2.1157263     0.6439182
C           4.7165539     1.5547143     1.4113111
H           4.7401932     2.2760471     2.2237681
C           3.6060277     0.7224561     1.2753738
H           2.7689875     0.7961435     1.9570698
C           3.5667227    -0.2093965     0.2301516
C           4.6347925    -0.2856488    -0.6733718
H           4.5932682    -0.9950172    -1.4975392
C           5.7473776     0.5390892    -0.5168878
H           6.5729834     0.4634532    -1.2194312
C           0.1601945    -1.7497327    -0.4236336
H          -0.7551671    -1.7275477     0.1713104
H           0.5691187    -2.7655029    -0.4214819
H          -0.1048119    -1.4846807    -1.4541664
O           0.7444928     0.3482397     0.6017483
19
248_C8H9NO_0-1-9-10 (-120,) energy =    -440.2606291
C           1.1312333    -0.6787718     0.0372006
N           2.4442829    -1.1154878     0.1414610
H           2.6454838    -2.0076691    -0.2921219
C           5.7560496     1.4754909     0.5151080
H           6.6099073     2.1403002     0.6110819
C           4.7294388     1.5084732     1.4612238
H           4.7815340     2.2017534     2.2963299
C           3.6346265     0.6522011     1.3510458
H           2.8346283     0.6747724     2.0814022
C           3.5603989    -0.2423685     0.2779961
C           4.5732421    -0.2571478    -0.6877750
H           4.4980433    -0.9335844    -1.5363572
C           5.6757504     0.5869846    -0.5583084
H           6.4633127     0.5595820    -1.3065430
C           0.1574064    -1.7409278    -0.4552795
H          -0.8057716    -1.5864740     0.0353266
H           0.5017148    -2.7629369    -0.2657925
H           0.0056909    -1.6204172    -1.5346623
O           0.7786930     0.4522590     0.3226150
19
248_C8H9NO_0-1-9-10 (-105,) energy =    -440.2585738
C           1.1557874    -0.6580218    -0.0805968
N           2.4303402    -1.1175219     0.2165276
H           2.6328895    -2.0723120    -0.0521909
C           5.7489401     1.4802357     0.5102394
H           6.6019596     2.1486675     0.5880151
C           4.7801485     1.4600592     1.5158027
H           4.8759931     2.1147260     2.3776977
C           3.6885384     0.5971453     1.4247585
H           2.9314602     0.5717081     2.2012153
C           3.5591341    -0.2464509     0.3182123
C           4.5120410    -0.2057963    -0.7044804
H           4.3890325    -0.8417894    -1.5777229
C           5.6137275     0.6436723    -0.5990198
H           6.3570523     0.6616991    -1.3914643
C           0.1714570    -1.7525209    -0.4720168
H          -0.8204895    -1.4762439    -0.1087508
H           0.4424644    -2.7369321    -0.0765039
H           0.1198177    -1.8200226    -1.5653571
O           0.8428936     0.5179958    -0.0241536
19
248_C8H9NO_0-1-9-10 (-90,) energy =    -440.2572517
C           1.4426126    -0.7813583    -0.2686820
N           2.6652595    -1.1644832     0.2411590
H           2.7247292    -2.0524022     0.7209195
C           5.9941858     1.4145449     0.6095741
H           6.8554204     2.0700800     0.7060962
C           5.0903874     1.2865500     1.6660412
H           5.2447035     1.8428439     2.5865783
C           3.9827161     0.4475888     1.5409840
H           3.2685955     0.3483207     2.3536168
C           3.7784157    -0.2689145     0.3584432
C           4.6851749    -0.1445217    -0.6970547
H           4.5140160    -0.7068840    -1.6098733
C           5.7882738     0.7004131    -0.5723633
H           6.4882958     0.7981906    -1.3975910
C           0.3600908    -1.8522093    -0.2064538
H          -0.5079802    -1.4429758     0.3188783
H           0.6731898    -2.7775555     0.2877683
H           0.0413050    -2.0884304    -1.2264988
O           1.2402723     0.3192528    -0.7537922
19
248_C8H9NO_0-1-9-10 (-75,) energy =    -440.2586528
C           1.5063499    -0.8660073    -0.4218581
N           2.6647935    -1.1670399     0.2754337
H           2.5774876    -1.8367243     1.0287222
C           5.9913968     1.4134256     0.6174649
H           6.8562269     2.0646494     0.7092733
C           5.1585304     1.1973029     1.7163077
H           5.3704366     1.6794258     2.6668088
C           4.0431703     0.3674505     1.5966948
H           3.3833525     0.2078465     2.4459941
C           3.7629892    -0.2576717     0.3779188
C           4.6089426    -0.0591906    -0.7170589
H           4.3881088    -0.5607216    -1.6533232
C           5.7103865     0.7874260    -0.5990870
H           6.3583235     0.9476399    -1.4565123
C           0.3585847    -1.8437025    -0.2052845
H          -0.5185047    -1.2847234     0.1347272
H           0.5779184    -2.6390441     0.5140730
H           0.1008521    -2.3000004    -1.1660758
O           1.4172393     0.0812930    -1.1835721
19
248_C8H9NO_0-1-9-10 (-60,) energy =    -440.2607668
C           1.5560383    -0.9364179    -0.5140948
N           2.6382674    -1.1183296     0.3326677
H           2.4598553    -1.6542710     1.1718628
C           6.0000959     1.4161055     0.6227533
H           6.8746974     2.0554031     0.7038662
C           5.2240131     1.1433688     1.7499166
H           5.4893173     1.5687865     2.7140042
C           4.0962458     0.3294059     1.6438962
H           3.4825054     0.1271854     2.5189894
C           3.7436515    -0.2249040     0.4085720
C           4.5345649     0.0272172    -0.7183051
H           4.2600719    -0.4136359    -1.6693504
C           5.6476346     0.8589648    -0.6087373
H           6.2509158     1.0608965    -1.4896923
C           0.3692724    -1.8488993    -0.2345818
H          -0.5186538    -1.2292651    -0.0761667
H           0.5044021    -2.5082553     0.6285982
H           0.1829425    -2.4634199    -1.1207975
O           1.5584430    -0.1415500    -1.4385582
19
248_C8H9NO_0-1-9-10 (-45,) energy =    -440.2627017
C           1.5882309    -1.0055961    -0.5685710
N           2.5916924    -1.0438096     0.3840148
H           2.3493998    -1.4754762     1.2657924
C           6.0207078     1.4003068     0.6273192
H           6.9111189     2.0182199     0.7006055
C           5.2865691     1.0860217     1.7717876
H           5.6004685     1.4569080     2.7437712
C           4.1401021     0.2992508     1.6751494
H           3.5628896     0.0638584     2.5672041
C           3.7202292    -0.1861668     0.4300410
C           4.4669035     0.1087586    -0.7187329
H           4.1417484    -0.2689129    -1.6792716
C           5.6022130     0.9106761    -0.6117479
H           6.1707525     1.1442059    -1.5079761
C           0.3715871    -1.8632766    -0.2464769
H          -0.5188823    -1.2276509    -0.2680037
H           0.4236088    -2.3724309     0.7210717
H           0.2536594    -2.6146386    -1.0334757
O           1.6704205    -0.3696439    -1.6066436
19
248_C8H9NO_0-1-9-10 (-30,) energy =    -440.2641261
C           1.6148839    -1.0679840    -0.6099520
N           2.5373929    -0.9543942     0.4116477
H           2.2487869    -1.3092926     1.3130585
C           6.0449770     1.3792946     0.6298650
H           6.9530564     1.9712881     0.6995746
C           5.3391145     1.0313921     1.7826432
H           5.6927781     1.3500056     2.7595311
C           4.1721490     0.2767938     1.6892376
H           3.6219384     0.0141586     2.5910207
C           3.6966581    -0.1436703     0.4384819
C           4.4108395     0.1903525    -0.7216176
H           4.0418875    -0.1302854    -1.6859415
C           5.5714705     0.9560068    -0.6131412
H           6.1147908     1.2167719    -1.5175497
C           0.3769848    -1.8820471    -0.2558863
H          -0.5087153    -1.2646081    -0.4338619
H           0.3559417    -2.2453729     0.7764762
H           0.3164060    -2.7401727    -0.9324663
O           1.7681432    -0.5869858    -1.7221071
19
248_C8H9NO_0-1-9-10 (-15,) energy =    -440.2649843
C           1.6426415    -1.1223061    -0.6329616
N           2.4835596    -0.8588293     0.4277884
H           2.1548861    -1.1485728     1.3384393
C           6.0673171     1.3571773     0.6334557
H           6.9921419     1.9225899     0.7029499
C           5.3834010     0.9778621     1.7898159
H           5.7707411     1.2449076     2.7694048
C           4.1968249     0.2557299     1.6974158
H           3.6669232    -0.0340031     2.6032548
C           3.6755752    -0.1003701     0.4436065
C           4.3634910     0.2716573    -0.7215570
H           3.9592961     0.0008488    -1.6865700
C           5.5482304     0.9999708    -0.6116317
H           6.0719299     1.2871765    -1.5196798
C           0.3856640    -1.8996572    -0.2628566
H          -0.4874391    -1.3236562    -0.5840684
H           0.2902511    -2.1232378     0.8044826
H           0.3782801    -2.8404870    -0.8220231
O           1.8679059    -0.7865595    -1.7863462
19
248_C8H9NO_0-1-9-10 (0,) energy =    -440.2652766
C           1.6698927    -1.1686336    -0.6419653
N           2.4286506    -0.7597060     0.4336399
H           2.0669416    -0.9907170     1.3484555
C           6.0863197     1.3313708     0.6335881
H           7.0275539     1.8689607     0.7033127
C           5.4207854     0.9215502     1.7903836
H           5.8386644     1.1367510     2.7701898
C           4.2147764     0.2327998     1.6984328
H           3.7011043    -0.0839352     2.6046468
C           3.6538931    -0.0574898     0.4443805
C           4.3189738     0.3521161    -0.7216696
H           3.8862637     0.1278740    -1.6861615
C           5.5268974     1.0414896    -0.6114180
H           6.0347068     1.3547612    -1.5199039
C           0.3959321    -1.9155408    -0.2667980
H          -0.4567301    -1.3994182    -0.7181578
H           0.2253288    -2.0059713     0.8107200
H           0.4370318    -2.9185996    -0.7028891
O           1.9684403    -0.9670087    -1.8101554
19
248_C8H9NO_0-1-9-10 (15,) energy =    -440.2649871
C           1.6976971    -1.2181034    -0.6360533
N           2.3716183    -0.6638098     0.4318372
H           1.9749154    -0.8358841     1.3452345
C           6.0979110     1.3039455     0.6323543
H           7.0542532     1.8144090     0.7006169
C           5.4490915     0.8630961     1.7871062
H           5.8953567     1.0271511     2.7642832
C           4.2248283     0.2066810     1.6960676
H           3.7260035    -0.1372536     2.6005931
C           3.6283807    -0.0181615     0.4453541
C           4.2727692     0.4301743    -0.7178280
H           3.8149144     0.2530502    -1.6806071
C           5.5017770     1.0812999    -0.6095501
H           5.9952915     1.4213547    -1.5162501
C           0.4050535    -1.9330874    -0.2630810
H          -0.4169086    -1.4879747    -0.8317412
H           0.1590513    -1.8950369     0.8029087
H           0.4836131    -2.9805738    -0.5707156
O           2.0761227    -1.1491200    -1.7961249
19
248_C8H9NO_0-1-9-10 (30,) energy =    -440.2641325
C           1.7375393    -1.2664296    -0.6227559
N           2.3219830    -0.5667037     0.4147088
H           1.8837712    -0.6687186     1.3198788
C           6.1121003     1.2735983     0.6273344
H           7.0830868     1.7555275     0.6967258
C           5.4790267     0.7961128     1.7759722
H           5.9523116     0.9026969     2.7483794
C           4.2364328     0.1736210     1.6840141
H           3.7503080    -0.2033947     2.5820093
C           3.6075421     0.0237633     0.4393155
C           4.2333430     0.5156650    -0.7155802
H           3.7494209     0.3953949    -1.6748303
C           5.4826771     1.1264897    -0.6098808
H           5.9637465     1.4981925    -1.5107754
C           0.4217255    -1.9458129    -0.2655632
H          -0.3492903    -1.6024178    -0.9615921
H           0.0822844    -1.7601700     0.7584140
H           0.5342206    -3.0249295    -0.4112870
O           2.2082725    -1.3344044    -1.7476833
19
248_C8H9NO_0-1-9-10 (45,) energy =    -440.2627233
C           1.7829165    -1.3120632    -0.5946670
N           2.2749319    -0.4670157     0.3850079
H           1.7945811    -0.4945587     1.2744804
C           6.1248234     1.2411568     0.6262618
H           7.1101881     1.6926083     0.6987848
C           5.5041010     0.7205770     1.7625275
H           6.0017232     0.7632247     2.7276288
C           4.2429482     0.1349355     1.6660662
H           3.7656927    -0.2801571     2.5516249
C           3.5867594     0.0700230     0.4300742
C           4.1976191     0.6111022    -0.7092684
H           3.6883647     0.5608916    -1.6627394
C           5.4663955     1.1790452    -0.6036613
H           5.9383075     1.5874518    -1.4933227
C           0.4409883    -1.9519232    -0.2643260
H          -0.2580301    -1.7383921    -1.0780965
H           0.0019351    -1.6113910     0.6787586
H           0.5708018    -3.0383420    -0.2235022
O           2.3523129    -1.5183749    -1.6539168
19
248_C8H9NO_0-1-9-10 (60,) energy =    -440.2607871
C           1.8168542    -1.3774710    -0.5463746
N           2.2257925    -0.3890090     0.3356950
H           1.6925612    -0.3123500     1.1920740
C           6.1212875     1.2102738     0.6151920
H           7.1176157     1.6361310     0.6938956
C           5.5154036     0.6317434     1.7311399
H           6.0361876     0.6033822     2.6844565
C           4.2395878     0.0776005     1.6271914
H           3.7724034    -0.3858738     2.4934086
C           3.5578250     0.1076437     0.4057266
C           4.1532832     0.7093493    -0.7088943
H           3.6153382     0.7372350    -1.6491030
C           5.4370310     1.2416638    -0.6021951
H           5.8991634     1.6967518    -1.4740385
C           0.4448717    -1.9666330    -0.2472301
H          -0.1659200    -1.9080930    -1.1525278
H          -0.0848513    -1.4697787     0.5716915
H           0.5629214    -3.0273689    -0.0020224
O           2.4810103    -1.7328884    -1.5049097
19
248_C8H9NO_0-1-9-10 (75,) energy =    -440.2586779
C           1.8591212    -1.4527042    -0.4628388
N           2.2012459    -0.3331326     0.2782029
H           1.5962926    -0.1047655     1.0565129
C           6.1208312     1.2030712     0.6145168
H           7.1233176     1.6116784     0.7065672
C           5.5316554     0.5475054     1.6966587
H           6.0720404     0.4422840     2.6335295
C           4.2475239     0.0149040     1.5773742
H           3.7899164    -0.5095965     2.4126451
C           3.5443976     0.1463381     0.3762210
C           4.1250455     0.8217925    -0.7010535
H           3.5633209     0.9281920    -1.6229936
C           5.4165848     1.3338932    -0.5846011
H           5.8683582     1.8479949    -1.4285844
C           0.4467055    -1.9690094    -0.2209110
H          -0.0585550    -2.0691566    -1.1855847
H          -0.1554556    -1.3287685     0.4314854
H           0.5070654    -2.9694471     0.2204332
O           2.6127184    -1.9719679    -1.2676899
19
248_C8H9NO_0-1-9-10 (90,) energy =    -440.2572601
C           1.9030417    -1.5588932    -0.3184246
N           2.2034894    -0.3348393     0.2417688
H           1.4806561     0.1373577     0.7679482
C           6.1229329     1.2057830     0.6069956
H           7.1268758     1.6102920     0.7030601
C           5.5729329     0.4459671     1.6411866
H           6.1473274     0.2557856     2.5437240
C           4.2853717    -0.0765792     1.5165536
H           3.8522511    -0.6770624     2.3115972
C           3.5426671     0.1634839     0.3570939
C           4.0909155     0.9280149    -0.6756782
H           3.5025622     1.1067849    -1.5704464
C           5.3814954     1.4431917    -0.5519833
H           5.8061446     2.0328257    -1.3598211
C           0.4372862    -1.9640186    -0.2192098
H           0.0817666    -2.2348366    -1.2173227
H          -0.2140151    -1.1859913     0.1918973
H           0.3594959    -2.8582518     0.4079355
O           2.7373232    -2.2640447    -0.8607941
19
248_C8H9NO_0-1-9-10 (105,) energy =    -440.2585747
C           1.2625335    -1.3545516     0.1911010
N           2.0324524    -0.5406906    -0.6266097
H           1.9587245    -0.7127418    -1.6214472
C           5.6349900     1.2224565     0.7003085
H           6.5604751     1.6775595     1.0421511
C           4.4061865     1.7044682     1.1561248
H           4.3727010     2.5348923     1.8560533
C           3.2157225     1.1293125     0.7127217
H           2.2555524     1.4972473     1.0582920
C           3.2524953     0.0603197    -0.1865386
C           4.4826509    -0.4436648    -0.6206125
H           4.5057395    -1.2955678    -1.2958270
C           5.6704402     0.1486709    -0.1909404
H           6.6228318    -0.2398892    -0.5413479
C           0.1983110    -2.1571338    -0.5459429
H          -0.6907438    -2.2207016     0.0850683
H           0.5642937    -3.1779730    -0.7081975
H          -0.0743345    -1.7275316    -1.5153866
O           1.4130537    -1.4174685     1.3983751
19
248_C8H9NO_0-1-9-10 (120,) energy =    -440.2606265
C           1.1865733    -1.2604389     0.1973449
N           2.0764266    -0.6032865    -0.6402873
H           2.0930823    -0.9231425    -1.6003692
C           5.6371177     1.2302837     0.6941934
H           6.5543239     1.7023679     1.0349872
C           4.4039712     1.6345784     1.2099806
H           4.3590361     2.4229588     1.9564242
C           3.2214563     1.0404742     0.7710114
H           2.2622310     1.3492254     1.1691238
C           3.2719987     0.0242403    -0.1891470
C           4.5084170    -0.4034933    -0.6862341
H           4.5463656    -1.2137362    -1.4110660
C           5.6848006     0.2111469    -0.2582580
H           6.6392430    -0.1192776    -0.6591311
C           0.1835859    -2.1475170    -0.5280178
H          -0.7739982    -2.0917953    -0.0059194
H           0.5258323    -3.1883536    -0.4851330
H           0.0405397    -1.8717516    -1.5779177
O           1.1933950    -1.1355055     1.4095411
19
248_C8H9NO_0-1-9-10 (135,) energy =    -440.2625442
C           1.3965533    -1.1490711     0.2567866
N           2.3792712    -0.6328390    -0.5720220
H           2.4171553    -1.0231783    -1.5045651
C           5.9646290     1.2273202     0.6491311
H           6.8905169     1.7053851     0.9561031
C           4.7611355     1.5534563     1.2774705
H           4.7480447     2.2884317     2.0778482
C           3.5643427     0.9528983     0.8885447
H           2.6328913     1.1997301     1.3807670
C           3.5719412     0.0033835    -0.1414776
C           4.7811037    -0.3419377    -0.7590745
H           4.7888998    -1.0955566    -1.5440230
C           5.9685098     0.2781285    -0.3740724
H           6.8981016     0.0076300    -0.8676161
C           0.3973796    -2.0561127    -0.4491216
H          -0.5917864    -1.8874667    -0.0180006
H           0.6671037    -3.1023688    -0.2625386
H           0.3521526    -1.8967203    -1.5314141
O           1.3233899    -0.9035070     1.4492178
19
248_C8H9NO_0-1-9-10 (150,) energy =    -440.2640196
C           1.3442782    -1.0885939     0.2422700
N           2.4315336    -0.7235833    -0.5292058
H           2.5164648    -1.1899801    -1.4224205
C           5.9704532     1.2593666     0.6312433
H           6.8870824     1.7668669     0.9178565
C           4.7796810     1.5112002     1.3144936
H           4.7672373     2.2191990     2.1389545
C           3.5926796     0.8719880     0.9567461
H           2.6736428     1.0595735     1.4942352
C           3.5982932    -0.0443839    -0.1047688
C           4.7963446    -0.3099809    -0.7841467
H           4.8048208    -1.0313751    -1.5992367
C           5.9713954     0.3450034    -0.4234202
H           6.8896652     0.1315032    -0.9639192
C           0.3761851    -2.0366770    -0.4537714
H          -0.6420611    -1.7684141    -0.1637247
H           0.5620224    -3.0595805    -0.1058624
H           0.4558015    -2.0216980    -1.5457329
O           1.1590526    -0.6992153     1.3845278
19
248_C8H9NO_0-1-9-10 (165,) energy =    -440.2649388
C           1.3072439    -1.0420484     0.2143604
N           2.4821122    -0.8250604    -0.4760620
H           2.5991070    -1.3543182    -1.3293682
C           5.9681849     1.2892792     0.6077435
H           6.8730522     1.8284568     0.8729282
C           4.7952860     1.4713510     1.3415340
H           4.7845005     2.1569059     2.1848662
C           3.6225535     0.7898729     1.0152484
H           2.7172551     0.9256826     1.5896209
C           3.6242715    -0.0987161    -0.0708195
C           4.8046042    -0.2888466    -0.8064371
H           4.8108474    -0.9827273    -1.6453441
C           5.9648957     0.4035891    -0.4713028
H           6.8681994     0.2449538    -1.0542542
C           0.3565402    -2.0189943    -0.4662272
H          -0.6673289    -1.6739986    -0.3064353
H           0.4529710    -3.0035004     0.0062806
H           0.5350944    -2.1317160    -1.5407097
O           1.0357228    -0.5206076     1.2855392
19
248_C8H9NO_0-1-9-10 (180,) energy =    -440.2652472
C           1.2871721    -1.0006694     0.1858280
N           2.5305876    -0.9245365    -0.4051817
H           2.6724702    -1.5079201    -1.2182693
C           5.9611192     1.3213877     0.5864254
H           6.8527685     1.8927034     0.8280102
C           4.8124473     1.4364673     1.3702125
H           4.8074823     2.1021537     2.2293867
C           3.6571489     0.7115002     1.0766368
H           2.7678879     0.8018691     1.6839446
C           3.6512784    -0.1514063    -0.0302127
C           4.8056622    -0.2686144    -0.8209695
H           4.8043869    -0.9367389    -1.6806308
C           5.9498931     0.4619258    -0.5136610
H           6.8333693     0.3571317    -1.1377186
C           0.3420328    -1.9948067    -0.4776895
H          -0.6672238    -1.5776810    -0.4576913
H           0.3290911    -2.9230329     0.1052737
H           0.6103508    -2.2390596    -1.5108764
O           0.9547589    -0.3589908     1.1716318
