29
380_C14H14O_3-0-21-19 (-165,) energy =    -617.1349114
C           1.3509058    -1.4632596     0.2606999
H           2.0713106    -2.2401900    -0.0434891
H           1.3794353    -1.4133459     1.3588851
O           1.7567866    -0.2171903    -0.2845899
C           5.4917140     1.4213457     0.5797013
H           6.4582950     1.8705116     0.7881405
C           5.1502742     0.1922761     1.1377651
H           5.8521797    -0.3249751     1.7868547
C           3.9082730    -0.3972897     0.8777629
H           3.6688793    -1.3545007     1.3257795
C           2.9964666     0.2599914     0.0431982
C           3.3352861     1.4991777    -0.5210924
H           2.6122309     1.9920301    -1.1636099
C           4.5733418     2.0711083    -0.2526719
H           4.8235840     3.0314833    -0.6958193
C          -2.5577428    -2.9609611    -0.8246433
H          -3.5326595    -3.3651163    -1.0837577
C          -1.8526584    -3.4556391     0.2707789
H          -2.2638158    -4.2532916     0.8833756
C          -0.6104054    -2.9087326     0.5776028
H          -0.0625663    -3.2874299     1.4390378
C          -0.0442439    -1.8732572    -0.1813603
C          -0.7405394    -1.3851661    -1.3080849
C          -0.2212589    -0.3061862    -2.2366112
H           0.7760190    -0.5391839    -2.6207685
H          -0.1435296     0.6616132    -1.7325490
H          -0.8975015    -0.1929152    -3.0901123
C          -1.9979663    -1.9432220    -1.5923220
H          -2.5451268    -1.5654406    -2.4529355
29
380_C14H14O_3-0-21-19 (-150,) energy =    -617.1369760
C           1.3676782    -1.5105107     0.2193958
H           2.0725946    -2.1991448    -0.2755120
H           1.5003052    -1.6350541     1.3028088
O           1.6880963    -0.1759629    -0.1574093
C           5.4604534     1.4458424     0.5620163
H           6.4346433     1.8927743     0.7372428
C           5.2053084     0.1345403     0.9546926
H           5.9828584    -0.4497051     1.4401385
C           3.9545928    -0.4530376     0.7354561
H           3.7830393    -1.4751051     1.0523552
C           2.9454949     0.2901083     0.1110924
C           3.1970843     1.6125149    -0.2850932
H           2.3988984     2.1712817    -0.7640082
C           4.4451299     2.1813480    -0.0597857
H           4.6271014     3.2066641    -0.3711812
C          -2.6141321    -2.8555450    -0.7778653
H          -3.6079461    -3.2190406    -1.0254387
C          -1.9612487    -3.3029932     0.3682052
H          -2.4332930    -4.0226463     1.0313727
C          -0.6917812    -2.8097158     0.6619274
H          -0.1856791    -3.1482902     1.5639577
C          -0.0537010    -1.8726233    -0.1618524
C          -0.6935227    -1.4462231    -1.3467794
C          -0.0618076    -0.5015781    -2.3469291
H           0.9586015    -0.8014245    -2.6068599
H           0.0037619     0.5186388    -1.9570646
H          -0.6533561    -0.4786379    -3.2678798
C          -1.9773136    -1.9421985    -1.6163946
H          -2.4814003    -1.6086320    -2.5205905
29
380_C14H14O_3-0-21-19 (-135,) energy =    -617.1392417
C           1.3967330    -1.5726134     0.1471627
H           2.0750454    -2.1550079    -0.4976777
H           1.6170489    -1.8459209     1.1876249
O           1.6481541    -0.1822328    -0.0554119
C           5.4276073     1.4664918     0.5569767
H           6.4018990     1.9216704     0.7089377
C           5.2427484     0.1047419     0.7816565
H           6.0757551    -0.5108070     1.1115562
C           3.9927444    -0.4939830     0.5903295
H           3.8761501    -1.5556522     0.7746261
C           2.9125152     0.2890594     0.1655857
C           3.0933968     1.6621392    -0.0606609
H           2.2403559     2.2501152    -0.3853008
C           4.3416645     2.2415749     0.1344230
H           4.4684620     3.3062339    -0.0440067
C          -2.6624260    -2.7337580    -0.7382269
H          -3.6790323    -3.0445168    -0.9643880
C          -2.0483804    -3.1358764     0.4453932
H          -2.5752184    -3.7651929     1.1573525
C          -0.7453332    -2.7169140     0.7126478
H          -0.2654843    -3.0203494     1.6406870
C          -0.0424310    -1.8984891    -0.1788308
C          -0.6479123    -1.5160132    -1.3962463
C           0.0727295    -0.6914782    -2.4390410
H           1.0830500    -1.0708352    -2.6319675
H           0.1872551     0.3498824    -2.1227661
H          -0.4779841    -0.7051718    -3.3849775
C          -1.9608894    -1.9360939    -1.6427630
H          -2.4371792    -1.6391424    -2.5744418
29
380_C14H14O_3-0-21-19 (-120,) energy =    -617.1405908
C           1.4312200    -1.6158191     0.0766865
H           2.0885845    -2.0868924    -0.6703069
H           1.7160426    -2.0055108     1.0629372
O           1.6241583    -0.1984950     0.0406607
C           5.3882748     1.5089483     0.5845677
H           6.3572298     1.9796957     0.7226612
C           5.2580236     0.1252145     0.6702484
H           6.1286847    -0.4919016     0.8771208
C           4.0155973    -0.4938672     0.4950116
H           3.9417528    -1.5726198     0.5702786
C           2.8872194     0.2909700     0.2280098
C           3.0131350     1.6860482     0.1422141
H           2.1234578     2.2739701    -0.0618907
C           4.2545229     2.2856071     0.3196977
H           4.3385154     3.3671151     0.2507894
C          -2.6864257    -2.6360977    -0.6883220
H          -3.7216042    -2.9025543    -0.8850026
C          -2.0926857    -2.9695168     0.5266573
H          -2.6553108    -3.4981008     1.2911987
C          -0.7630925    -2.6141397     0.7559782
H          -0.2957453    -2.8660388     1.7053731
C          -0.0162143    -1.9310654    -0.2088819
C          -0.6095292    -1.6026232    -1.4475440
C           0.1593572    -0.8843169    -2.5321912
H           1.1123705    -1.3823452    -2.7521760
H           0.4035501     0.1409866    -2.2368956
H          -0.4191645    -0.8485406    -3.4603534
C          -1.9454459    -1.9607014    -1.6597519
H          -2.4111205    -1.7096351    -2.6100675
29
380_C14H14O_3-0-21-19 (-105,) energy =    -617.1408277
C           1.4818036    -1.6259280    -0.0242197
H           2.1056035    -1.9888694    -0.8530495
H           1.8312102    -2.1123194     0.8962161
O           1.6332030    -0.2054495     0.0955139
C           5.3697096     1.5501253     0.6783713
H           6.3303840     2.0334679     0.8302007
C           5.2827551     0.1624103     0.6026480
H           6.1792516    -0.4452930     0.6959364
C           4.0514223    -0.4727618     0.4075041
H           4.0116463    -1.5546522     0.3544496
C           2.8900722     0.2998079     0.2858844
C           2.9724481     1.6987405     0.3623682
H           2.0578300     2.2759521     0.2672921
C           4.2033702     2.3142223     0.5572309
H           4.2536480     3.3984974     0.6148053
C          -2.6889124    -2.5316227    -0.6165553
H          -3.7409341    -2.7591076    -0.7676980
C          -2.0882817    -2.7695034     0.6178079
H          -2.6635331    -3.1823758     1.4418704
C          -0.7366078    -2.4684755     0.7880537
H          -0.2616710    -2.6470792     1.7502066
C           0.0252614    -1.9386688    -0.2575355
C          -0.5796841    -1.6919806    -1.5084246
C           0.2058603    -1.1105659    -2.6616064
H           1.0049290    -1.7886411    -2.9905383
H           0.6827323    -0.1656674    -2.3816558
H          -0.4426630    -0.9264301    -3.5233311
C          -1.9362713    -1.9964943    -1.6636390
H          -2.4109329    -1.8096526    -2.6242133
29
380_C14H14O_3-0-21-19 (-90,) energy =    -617.1401409
C           1.6034842    -1.6078302    -0.1676809
H           2.1831507    -1.8600586    -1.0643682
H           2.0282920    -2.1695018     0.6754800
O           1.7110727    -0.2025620     0.0970323
C           5.4051219     1.6233602     0.7336979
H           6.3534936     2.1247073     0.9035386
C           5.3660618     0.2543301     0.4822464
H           6.2881536    -0.3207718     0.4547819
C           4.1508345    -0.4033162     0.2620073
H           4.1490691    -1.4699766     0.0692608
C           2.9566041     0.3269822     0.2950294
C           2.9909157     1.7069840     0.5486212
H           2.0517999     2.2512709     0.5703870
C           4.2064481     2.3452239     0.7654911
H           4.2192230     3.4143864     0.9610602
C          -2.5910650    -2.5152332    -0.5420801
H          -3.6506602    -2.7387138    -0.6351477
C          -1.9590734    -2.6059294     0.6970428
H          -2.5185221    -2.8972740     1.5816809
C          -0.5981956    -2.3170248     0.7914047
H          -0.0960889    -2.3833961     1.7540697
C           0.1433119    -1.9458116    -0.3347663
C          -0.4956846    -1.8335562    -1.5866351
C           0.2583165    -1.3936647    -2.8219222
H           1.0115060    -2.1319218    -3.1274482
H           0.7829142    -0.4466212    -2.6534727
H          -0.4242523    -1.2556066    -3.6657835
C          -1.8613273    -2.1301078    -1.6675290
H          -2.3617232    -2.0509835    -2.6299434
29
380_C14H14O_3-0-21-19 (-75,) energy =    -617.1392178
C           1.6122577    -1.5369283    -0.2804622
H           2.1393941    -1.6544818    -1.2336818
H           2.0980187    -2.1957245     0.4535448
O           1.7145349    -0.1794038     0.1680949
C           5.4139025     1.6228546     0.8376752
H           6.3638646     2.1167246     1.0200715
C           5.3786050     0.2996269     0.4054466
H           6.3051574    -0.2467852     0.2482791
C           4.1615391    -0.3480389     0.1665928
H           4.1627385    -1.3786789    -0.1691568
C           2.9615695     0.3456243     0.3656387
C           2.9921392     1.6796621     0.8009757
H           2.0486767     2.1963067     0.9479074
C           4.2095665     2.3085440     1.0337499
H           4.2194670     3.3419562     1.3706449
C          -2.5886931    -2.4764182    -0.4923293
H          -3.6489156    -2.7107017    -0.5408989
C          -1.9374577    -2.4104863     0.7392269
H          -2.4824143    -2.5894819     1.6619984
C          -0.5766979    -2.1138998     0.7752486
H          -0.0593518    -2.0587822     1.7303242
C           0.1478686    -1.8827320    -0.3998878
C          -0.5094161    -1.9284785    -1.6454137
C           0.2144657    -1.6490232    -2.9451665
H           0.9713289    -2.4116555    -3.1695466
H           0.7268216    -0.6802514    -2.9230257
H          -0.4891286    -1.6329075    -3.7828868
C          -1.8763086    -2.2359942    -1.6666506
H          -2.3907912    -2.2794465    -2.6238552
29
380_C14H14O_3-0-21-19 (-60,) energy =    -617.1387819
C           1.0849084    -0.2785803    -0.6445096
H           0.7836141     0.4589912     0.1071775
H           1.3363394     0.2691159    -1.5650289
O           2.2424388    -0.9878671    -0.1902765
C           5.8302619     0.9758232     0.6168651
H           6.7771059     1.4616772     0.8336915
C           4.7305372     1.7253653     0.2073564
H           4.8151357     2.8041051     0.1029809
C           3.5050616     1.1117850    -0.0746060
H           2.6643162     1.7192690    -0.3892586
C           3.3843772    -0.2771164     0.0555767
C           4.4897295    -1.0367139     0.4690849
H           4.3709127    -2.1116782     0.5638205
C           5.6998334    -0.4117202     0.7462328
H           6.5483275    -1.0114990     1.0653273
C          -1.9610338    -3.2012948    -1.5251445
H          -2.7257937    -3.9388803    -1.7539983
C          -0.7314763    -3.2329175    -2.1834782
H          -0.5248328    -3.9948930    -2.9300270
C           0.2313867    -2.2748568    -1.8766566
H           1.1955049    -2.2941996    -2.3782698
C          -0.0099018    -1.2841624    -0.9166239
C          -1.2464105    -1.2511480    -0.2428594
C          -1.5655324    -0.2143733     0.8138792
H          -1.5617595     0.8057473     0.4100308
H          -0.8450891    -0.2379249     1.6405494
H          -2.5581536    -0.3917984     1.2385659
C          -2.2078024    -2.2185060    -0.5683325
H          -3.1661128    -2.1996008    -0.0544467
29
380_C14H14O_3-0-21-19 (-45,) energy =    -617.1389953
C           1.0830698    -0.3269947    -0.4867271
H           0.8178882     0.2841559     0.3836750
H           1.2294380     0.3582114    -1.3364966
O           2.3015868    -1.0259085    -0.2294010
C           5.8623843     0.9918081     0.5648195
H           6.8038874     1.4909976     0.7744305
C           4.7028904     1.7327371     0.3516850
H           4.7353071     2.8184497     0.3946495
C           3.4837591     1.1014587     0.0815931
H           2.5962248     1.7027441    -0.0780070
C           3.4302439    -0.2964055     0.0232779
C           4.5959379    -1.0474257     0.2384410
H           4.5283673    -2.1298871     0.1899581
C           5.7990391    -0.4050947     0.5065360
H           6.6945966    -0.9986427     0.6711844
C          -1.9574670    -3.2056096    -1.5274856
H          -2.7239998    -3.9264092    -1.7996236
C          -0.6672864    -3.3190708    -2.0449430
H          -0.4146195    -4.1280457    -2.7250621
C           0.3002459    -2.3838263    -1.6850230
H           1.3105591    -2.4690194    -2.0737411
C           0.0024522    -1.3367527    -0.8043722
C          -1.2996180    -1.2138723    -0.2798794
C          -1.6885942    -0.0974338     0.6663330
H          -1.5865110     0.8927139     0.2043120
H          -1.0729011    -0.0942103     1.5745120
H          -2.7316087    -0.2043497     0.9790890
C          -2.2620520    -2.1606659    -0.6569567
H          -3.2684483    -2.0744285    -0.2536648
29
380_C14H14O_3-0-21-19 (-30,) energy =    -617.1396033
C           1.0870251    -0.3946676    -0.3543926
H           0.8693851     0.0767876     0.6129544
H           1.1327928     0.4115499    -1.1044708
O           2.3456849    -1.0569171    -0.2870041
C           5.8697316     1.0139689     0.5289872
H           6.8025469     1.5287300     0.7396800
C           4.6674793     1.7159810     0.5024078
H           4.6572551     2.7860241     0.6934900
C           3.4588514     1.0647645     0.2327973
H           2.5369502     1.6345396     0.2205577
C           3.4604944    -0.3130069    -0.0152865
C           4.6689357    -1.0252973     0.0114514
H           4.6442278    -2.0933310    -0.1818593
C           5.8609644    -0.3635164     0.2818731
H           6.7905296    -0.9264968     0.2996968
C          -1.9682754    -3.2121954    -1.5175880
H          -2.7430603    -3.9128628    -1.8174403
C          -0.6457476    -3.4106690    -1.9105086
H          -0.3757380    -4.2675460    -2.5219284
C           0.3350345    -2.5010345    -1.5170500
H           1.3685246    -2.6516727    -1.8101610
C           0.0134355    -1.3955179    -0.7226318
C          -1.3233985    -1.1828319    -0.3281330
C          -1.7279364     0.0095019     0.5114632
H          -1.4895634     0.9616948     0.0200456
H          -1.2225838     0.0171658     1.4860679
H          -2.8053313     0.0010805     0.7016967
C          -2.2954411    -2.1048569    -0.7356787
H          -3.3276410    -1.9485520    -0.4303622
29
380_C14H14O_3-0-21-19 (-15,) energy =    -617.1401917
C           1.0887007    -0.4557864    -0.2530633
H           0.9246304    -0.1231542     0.7825394
H           1.0476153     0.4445061    -0.8877846
O           2.3694245    -1.0606755    -0.3604597
C           5.8631690     1.0313436     0.5263525
H           6.7886406     1.5532197     0.7513576
C           4.6373335     1.6758971     0.6709913
H           4.6012355     2.7076955     1.0110692
C           3.4377917     1.0150782     0.3849336
H           2.4970800     1.5392665     0.5072593
C           3.4730152    -0.3136388    -0.0539570
C           4.7051081    -0.9680250    -0.2011546
H           4.7067688    -1.9988870    -0.5417660
C           5.8878175    -0.2973819     0.0878186
H           6.8361391    -0.8151525    -0.0301435
C          -1.9796068    -3.2229746    -1.4998805
H          -2.7605690    -3.9096283    -1.8156573
C          -0.6426291    -3.4967155    -1.7803165
H          -0.3673944    -4.3997073    -2.3187226
C           0.3489666    -2.6052319    -1.3688403
H           1.3922252    -2.8117332    -1.5785260
C           0.0184414    -1.4411274    -0.6698436
C          -1.3333105    -1.1526478    -0.3879575
C          -1.7330268     0.1052038     0.3503043
H          -1.3912971     1.0119753    -0.1662309
H          -1.3111566     0.1386928     1.3637939
H          -2.8208257     0.1724086     0.4456104
C          -2.3137596    -2.0569973    -0.8103909
H          -3.3572608    -1.8401966    -0.5928427
29
380_C14H14O_3-0-21-19 (0,) energy =    -617.1404170
C           1.0761047    -0.5002451    -0.1802897
H           0.9792656    -0.3058259     0.8995918
H           0.9582415     0.4697798    -0.6889995
O           2.3625304    -1.0320553    -0.4567911
C           5.8487200     1.0283252     0.5295531
H           6.7726865     1.5432747     0.7757175
C           4.6177758     1.6107716     0.8201613
H           4.5760938     2.5870237     1.2963434
C           3.4203281     0.9579879     0.5080645
H           2.4759778     1.4341767     0.7447432
C           3.4625767    -0.2996303    -0.1052313
C           4.6999046    -0.8909586    -0.4002577
H           4.7072668    -1.8668125    -0.8760109
C           5.8805555    -0.2290971    -0.0837783
H           6.8329234    -0.6978325    -0.3173744
C          -1.9961979    -3.2390530    -1.4775625
H          -2.7789445    -3.9204226    -1.8002703
C          -0.6546671    -3.5695084    -1.6552574
H          -0.3773722    -4.5125851    -2.1186746
C           0.3401137    -2.6847882    -1.2357162
H           1.3864403    -2.9329050    -1.3700964
C           0.0060143    -1.4673374    -0.6375886
C          -1.3501288    -1.1241716    -0.4535380
C          -1.7489750     0.1861118     0.1866047
H          -1.3954057     1.0500240    -0.3924230
H          -1.3355677     0.2923351     1.1984828
H          -2.8370400     0.2674694     0.2662611
C          -2.3326047    -2.0235195    -0.8804103
H          -3.3795016    -1.7634923    -0.7402776
29
380_C14H14O_3-0-21-19 (15,) energy =    -617.1401919
C           1.0743512    -0.5418386    -0.0878959
H           1.0506000    -0.4871095     1.0128857
H           0.8965049     0.4773159    -0.4614524
O           2.3515188    -0.9901556    -0.5185553
C           5.8492875     1.0229316     0.5224656
H           6.7757948     1.5282574     0.7788025
C           4.6272649     1.5255188     0.9618692
H           4.5951562     2.4290673     1.5653048
C           3.4264948     0.8844618     0.6384541
H           2.4889958     1.2975351     0.9921523
C           3.4563383    -0.2799476    -0.1378905
C           4.6846471    -0.7903873    -0.5835748
H           4.6821288    -1.6939757    -1.1854133
C           5.8687045    -0.1411995    -0.2539465
H           6.8139722    -0.5465877    -0.6052933
C          -1.9948809    -3.2528852    -1.4492958
H          -2.7757900    -3.9311108    -1.7829197
C          -0.6556621    -3.6317744    -1.5134095
H          -0.3788106    -4.6101728    -1.8969742
C           0.3360172    -2.7503586    -1.0810105
H           1.3809051    -3.0344884    -1.1309765
C           0.0030264    -1.4851187    -0.5899848
C          -1.3507324    -1.0959803    -0.5149766
C          -1.7518634     0.2576245     0.0271210
H          -1.3430150     1.0795491    -0.5757946
H          -1.3975756     0.4109749     1.0551620
H          -2.8403445     0.3672273     0.0356761
C          -2.3312521    -1.9938767    -0.9508685
H          -3.3764155    -1.6972271    -0.8976006
29
380_C14H14O_3-0-21-19 (30,) energy =    -617.1396038
C           1.0708006    -0.5861575     0.0216551
H           1.1364688    -0.6778622     1.1179898
H           0.8403123     0.4639543    -0.2009455
O           2.3224132    -0.9310080    -0.5630853
C           5.8495657     1.0161117     0.5049014
H           6.7829339     1.5068576     0.7647125
C           4.6536334     1.4193754     1.0931833
H           4.6489376     2.2301838     1.8171860
C           3.4442651     0.7960361     0.7669631
H           2.5272548     1.1310945     1.2376334
C           3.4388147    -0.2496423    -0.1637868
C           4.6408475    -0.6590350    -0.7603797
H           4.6105403    -1.4706164    -1.4808579
C           5.8337133    -0.0286677    -0.4261271
H           6.7582933    -0.3550429    -0.8951627
C          -1.9871543    -3.2667577    -1.4237289
H          -2.7623330    -3.9418992    -1.7764541
C          -0.6596307    -3.6869489    -1.3603506
H          -0.3861630    -4.6945652    -1.6618391
C           0.3217305    -2.8075331    -0.9045545
H           1.3590453    -3.1217309    -0.8600504
C          -0.0046407    -1.5029779    -0.5195046
C          -1.3463912    -1.0729154    -0.5723511
C          -1.7556266     0.3201604    -0.1456140
H          -1.2704261     1.0957147    -0.7526044
H          -1.4971832     0.5250157     0.9013654
H          -2.8367481     0.4539908    -0.2471676
C          -2.3188544    -1.9709745    -1.0293808
H          -3.3549282    -1.6432494    -1.0768247
29
380_C14H14O_3-0-21-19 (45,) energy =    -617.1389934
C           1.0736560    -0.6513649     0.1560619
H           1.2412993    -0.8956759     1.2168656
H           0.7992848     0.4085481     0.1041161
O           2.2807522    -0.8704015    -0.5750288
C           5.8446992     1.0228139     0.4684152
H           6.7863406     1.5026347     0.7186556
C           4.6939565     1.3047921     1.2000109
H           4.7330417     2.0090021     2.0271970
C           3.4743417     0.6942427     0.8879087
H           2.5930766     0.9336399     1.4717452
C           3.4121171    -0.2148050    -0.1750406
C           4.5687926    -0.5014094    -0.9161091
H           4.4945335    -1.2081454    -1.7368813
C           5.7724476     0.1143913    -0.5938674
H           6.6612690    -0.1161325    -1.1755042
C          -1.9754580    -3.2655398    -1.4203580
H          -2.7440519    -3.9284618    -1.8089201
C          -0.6787534    -3.7344527    -1.2107106
H          -0.4234164    -4.7669864    -1.4332226
C           0.2913333    -2.8689390    -0.7102825
H           1.3067922    -3.2201709    -0.5535582
C          -0.0110253    -1.5323451    -0.4232790
C          -1.3197348    -1.0522903    -0.6287433
C          -1.7118233     0.3789582    -0.3271996
H          -1.1310175     1.0972505    -0.9197058
H          -1.5633015     0.6373888     0.7287121
H          -2.7686306     0.5446797    -0.5570028
C          -2.2843661    -1.9382650    -1.1280437
H          -3.2959835    -1.5740780    -1.2921544
29
380_C14H14O_3-0-21-19 (60,) energy =    -617.1387820
C           1.0745200    -0.7438138     0.2915477
H           1.3461963    -1.1283791     1.2859612
H           0.7661767     0.3001022     0.4138100
O           2.2185205    -0.8143230    -0.5660655
C           5.8098505     1.0599701     0.4196032
H           6.7573577     1.5374579     0.6515830
C           4.7240049     1.1919348     1.2812102
H           4.8200343     1.7760181     2.1930022
C           3.4979208     0.5822255     0.9935879
H           2.6684453     0.7034764     1.6806985
C           3.3621259    -0.1733095    -0.1774948
C           4.4535568    -0.3081462    -1.0494834
H           4.3233747    -0.8977536    -1.9517356
C           5.6645146     0.3046610    -0.7497401
H           6.5020351     0.1920492    -1.4333866
C          -1.9800569    -3.2678644    -1.4087574
H          -2.7466976    -3.9107187    -1.8333051
C          -0.7388906    -3.7943663    -1.0502069
H          -0.5246295    -4.8501302    -1.1920605
C           0.2264995    -2.9525536    -0.5040366
H           1.1994159    -3.3506357    -0.2275397
C          -0.0235936    -1.5878148    -0.3131782
C          -1.2718853    -1.0483717    -0.6803484
C          -1.6020256     0.4199775    -0.5117209
H          -0.8904640     1.0630433    -1.0436426
H          -1.5940469     0.7294643     0.5409354
H          -2.5991060     0.6372362    -0.9064167
C          -2.2356775    -1.9106036    -1.2222310
H          -3.2030552    -1.5034100    -1.5071489
29
380_C14H14O_3-0-21-19 (75,) energy =    -617.1392178
C           1.0900710    -0.8818105     0.4096055
H           1.4543751    -1.3861266     1.3158993
H           0.7655503     0.1248162     0.6960825
O           2.1597358    -0.7967290    -0.5406990
C           5.7394137     1.1366516     0.3702699
H           6.6818607     1.6336027     0.5810548
C           4.7311652     1.1009842     1.3300365
H           4.8833933     1.5720819     2.2978509
C           3.5123753     0.4643768     1.0710950
H           2.7442619     0.4519701     1.8358056
C           3.3045161    -0.1461910    -0.1717891
C           4.3179441    -0.1126365    -1.1423337
H           4.1331071    -0.5930435    -2.0981972
C           5.5228417     0.5242148    -0.8695045
H           6.2995613     0.5429601    -1.6296996
C          -2.0165071    -3.2552487    -1.4036309
H          -2.7954700    -3.8583354    -1.8627294
C          -0.8625434    -3.8591416    -0.9048260
H          -0.7281534    -4.9352696    -0.9715943
C           0.1198833    -3.0663451    -0.3157389
H           1.0241882    -3.5273573     0.0747893
C          -0.0301273    -1.6782858    -0.2141645
C          -1.1855685    -1.0613531    -0.7334719
C          -1.3843954     0.4384978    -0.6855610
H          -0.5472029     0.9726852    -1.1497048
H          -1.4770063     0.8110761     0.3426690
H          -2.2963496     0.7241312    -1.2183310
C          -2.1688136    -1.8718746    -1.3163064
H          -3.0668085    -1.4053049    -1.7147267
29
380_C14H14O_3-0-21-19 (90,) energy =    -617.1401424
C           1.1221657    -1.0182065     0.4849368
H           1.5597578    -1.6166780     1.2956677
H           0.7975956    -0.0613406     0.9123269
O           2.1162039    -0.7835943    -0.5217241
C           5.6642510     1.2290507     0.3414177
H           6.5967771     1.7498327     0.5383630
C           4.7430595     1.0205467     1.3646234
H           4.9541930     1.3792811     2.3688552
C           3.5382216     0.3510588     1.1239413
H           2.8394371     0.2009822     1.9388815
C           3.2554139    -0.1155682    -0.1655651
C           4.1809938     0.0917180    -1.2000787
H           3.9396539    -0.2803520    -2.1910317
C           5.3734769     0.7583573    -0.9442216
H           6.0819897     0.9122737    -1.7540595
C          -2.0757876    -3.2244562    -1.3769383
H          -2.8797210    -3.7807337    -1.8519234
C          -1.0229903    -3.8976550    -0.7594901
H          -0.9928182    -4.9836772    -0.7491042
C          -0.0047233    -3.1617952    -0.1545087
H           0.8216931    -3.6787268     0.3282243
C          -0.0249316    -1.7633198    -0.1501032
C          -1.0775766    -1.0776466    -0.7903927
C          -1.1182893     0.4333156    -0.8484230
H          -0.1877065     0.8423047    -1.2573451
H          -1.2592013     0.8785059     0.1453556
H          -1.9435070     0.7764679    -1.4795713
C          -2.0947885    -1.8291332    -1.3902768
H          -2.9134356    -1.3090006    -1.8823500
29
380_C14H14O_3-0-21-19 (105,) energy =    -617.1408274
C           1.1736959    -1.1332359     0.4948059
H           1.6692556    -1.8041138     1.2091102
H           0.8526479    -0.2368896     1.0437155
O           2.1005892    -0.7537461    -0.5307632
C           5.6088354     1.3175720     0.3556232
H           6.5292453     1.8574161     0.5580868
C           4.7652873     0.9453673     1.3991382
H           5.0254685     1.1940270     2.4248981
C           3.5768932     0.2495523     1.1516266
H           2.9396796    -0.0300336     1.9826938
C           3.2313753    -0.0760523    -0.1655740
C           4.0786293     0.2961023    -1.2207108
H           3.7905180     0.0306774    -2.2332818
C           5.2559979     0.9864183    -0.9576578
H           5.9036832     1.2688464    -1.7836202
C          -2.1432406    -3.1942500    -1.3257110
H          -2.9803149    -3.7129489    -1.7856956
C          -1.1768429    -3.9075305    -0.6197790
H          -1.2476607    -4.9873708    -0.5228638
C          -0.1107435    -3.2202827    -0.0386417
H           0.6503946    -3.7703531     0.5102646
C           0.0013706    -1.8310645    -0.1474228
C          -0.9727426    -1.1047623    -0.8651526
C          -0.8827893     0.3967273    -1.0147258
H           0.0774135     0.6965809    -1.4467996
H          -0.9725314     0.9066648    -0.0460060
H          -1.6826001     0.7742877    -1.6587807
C          -2.0347301    -1.8073968    -1.4444964
H          -2.7901744    -1.2559151    -1.9995754
29
380_C14H14O_3-0-21-19 (120,) energy =    -617.1405908
C           1.2007249    -1.2339698     0.4851792
H           1.7458665    -1.9652255     1.0965789
H           0.8869943    -0.4130544     1.1482309
O           2.0632590    -0.7108586    -0.5295903
C           5.5360229     1.3895171     0.4236147
H           6.4458279     1.9402847     0.6437562
C           4.7586274     0.8702794     1.4556325
H           5.0605636     1.0140084     2.4899696
C           3.5848026     0.1583576     1.1856252
H           3.0001907    -0.2378692     2.0078541
C           3.1860477    -0.0328147    -0.1429025
C           3.9669459     0.4872215    -1.1865781
H           3.6398392     0.3231008    -2.2087905
C           5.1308794     1.1913881    -0.9012780
H           5.7267582     1.5890198    -1.7187563
C          -2.2408844    -3.1612150    -1.2540675
H          -3.1141977    -3.6444676    -1.6842851
C          -1.3464983    -3.8886637    -0.4725726
H          -1.5102406    -4.9461143    -0.2843122
C          -0.2317715    -3.2453738     0.0662302
H           0.4736883    -3.8099374     0.6718766
C           0.0045211    -1.8862731    -0.1625882
C          -0.9062441    -1.1410782    -0.9432073
C          -0.7088165     0.3342321    -1.2041023
H           0.1665192     0.5144768    -1.8361128
H          -0.5437289     0.8928459    -0.2738889
H          -1.5862520     0.7625799    -1.6981340
C          -2.0159269    -1.8023003    -1.4811670
H          -2.7213795    -1.2364645    -2.0854409
29
380_C14H14O_3-0-21-19 (135,) energy =    -617.1392419
C           1.2554439    -1.3010808     0.4358079
H           1.8604955    -2.0787331     0.9205382
H           0.9572259    -0.5811967     1.2155255
O           2.0339937    -0.6198744    -0.5476565
C           5.5273115     1.4198182     0.4596010
H           6.4405920     1.9586780     0.6942927
C           4.8175388     0.7643475     1.4623902
H           5.1759682     0.7890056     2.4883289
C           3.6400564     0.0661233     1.1732217
H           3.1085646    -0.4370987     1.9725878
C           3.1689252     0.0275487    -0.1447407
C           3.8814838     0.6851790    -1.1591527
H           3.4996714     0.6379136    -2.1744260
C           5.0497743     1.3741010    -0.8550949
H           5.5925242     1.8790392    -1.6499928
C          -2.3055171    -3.1399776    -1.1602342
H          -3.2107782    -3.6024425    -1.5447343
C          -1.4512254    -3.8511776    -0.3211376
H          -1.6774969    -4.8756796    -0.0388660
C          -0.2932948    -3.2347355     0.1522346
H           0.3819393    -3.7900061     0.7997831
C           0.0320513    -1.9198783    -0.1998360
C          -0.8479806    -1.1826778    -1.0226699
C          -0.5994219     0.2632153    -1.3890411
H           0.2195674     0.3630907    -2.1079755
H          -0.3207583     0.8631812    -0.5148225
H          -1.4987839     0.7064533    -1.8283130
C          -1.9999846    -1.8212834    -1.4982909
H          -2.6788227    -1.2629787    -2.1390143
29
380_C14H14O_3-0-21-19 (150,) energy =    -617.1369760
C           1.2908664    -1.3549206     0.3768822
H           1.9465086    -2.1732288     0.7045932
H           1.0326871    -0.7666208     1.2731435
O           1.9850154    -0.5156788    -0.5393733
C           5.5172129     1.4247192     0.5271305
H           6.4384657     1.9418783     0.7787966
C           4.8837379     0.6152899     1.4664535
H           5.3100328     0.4969965     2.4593610
C           3.6968574    -0.0569720     1.1550467
H           3.2256916    -0.6814399     1.9050516
C           3.1386529     0.0879058    -0.1208151
C           3.7740708     0.9012343    -1.0714791
H           3.3255412     0.9960405    -2.0556086
C           4.9527496     1.5621211    -0.7460462
H           5.4351583     2.1888786    -1.4915749
C          -2.3787456    -3.1137790    -1.0720194
H          -3.3091533    -3.5611750    -1.4115441
C          -1.5567492    -3.7855634    -0.1703829
H          -1.8327800    -4.7656201     0.2088264
C          -0.3658846    -3.1881213     0.2372228
H           0.2841498    -3.7171626     0.9314927
C           0.0306531    -1.9305818    -0.2373335
C          -0.8182567    -1.2266378    -1.1200056
C          -0.5263622     0.1689126    -1.6288421
H           0.3042017     0.1763895    -2.3410174
H          -0.2478670     0.8510912    -0.8190062
H          -1.4096970     0.5791633    -2.1288616
C          -2.0045902    -1.8517961    -1.5305546
H          -2.6571749    -1.3210580    -2.2200352
29
380_C14H14O_3-0-21-19 (165,) energy =    -617.1349115
C           1.3013668    -1.3984879     0.3309567
H           2.0004419    -2.2373539     0.4610946
H           1.1171821    -0.9766864     1.3326115
O           1.8966568    -0.4035512    -0.4877507
C           5.5017593     1.4066064     0.5647563
H           6.4394265     1.8940097     0.8151487
C           4.9607462     0.4418079     1.4103870
H           5.4762812     0.1711486     2.3282688
C           3.7537660    -0.1940319     1.0994690
H           3.3559476    -0.9414891     1.7757344
C           3.0811402     0.1466873    -0.0800973
C           3.6223994     1.1177228    -0.9361963
H           3.0850404     1.3649732    -1.8465034
C           4.8224104     1.7398919    -0.6124695
H           5.2312325     2.4903003    -1.2840829
C          -2.4592045    -3.0926136    -0.9677460
H          -3.4069972    -3.5326784    -1.2660636
C          -1.6628679    -3.7073921    -0.0034332
H          -1.9756244    -4.6355192     0.4670146
C          -0.4516479    -3.1193293     0.3479772
H           0.1763744    -3.6035513     1.0941337
C          -0.0054633    -1.9253973    -0.2386801
C          -0.8188492    -1.2826864    -1.1966476
C          -0.4774961     0.0321290    -1.8681030
H           0.3982034    -0.0577489    -2.5175919
H          -0.2484202     0.8173641    -1.1419081
H          -1.3218836     0.3681768    -2.4785628
C          -2.0316319    -1.9000949    -1.5452109
H          -2.6591359    -1.4161672    -2.2900599
29
380_C14H14O_3-0-21-19 (180,) energy =    -617.1340721
C           1.3094654    -1.4389282     0.2902784
H           2.0297913    -2.2670692     0.2015963
H           1.2272094    -1.2021326     1.3625416
O           1.8073028    -0.3074353    -0.4036684
C           5.4851533     1.3943415     0.5762107
H           6.4392280     1.8571006     0.8108897
C           5.0452880     0.2838392     1.2915606
H           5.6569511    -0.1264600     2.0909651
C           3.8182461    -0.3219026     0.9994582
H           3.5008947    -1.1851301     1.5724469
C           3.0223081     0.1981121    -0.0280520
C           3.4608584     1.3170416    -0.7521404
H           2.8277496     1.7036121    -1.5447488
C           4.6824342     1.9068749    -0.4491965
H           5.0109071     2.7731813    -1.0174568
C          -2.5283989    -3.0507587    -0.8881102
H          -3.4891761    -3.4789089    -1.1610780
C          -1.7710212    -3.6028199     0.1438656
H          -2.1275125    -4.4699682     0.6929836
C          -0.5462042    -3.0274174     0.4644997
H           0.0473389    -3.4570506     1.2703797
C          -0.0463509    -1.9070877    -0.2178097
C          -0.8063827    -1.3417641    -1.2632623
C          -0.3886561    -0.1358496    -2.0810910
H           0.5512895    -0.3084399    -2.6131473
H          -0.2372680     0.7493411    -1.4570199
H          -1.1615701     0.0961092    -2.8209032
C          -2.0411447    -1.9400024    -1.5700264
H          -2.6330928    -1.5100354    -2.3746183
