30
192_C13H13N3O_2-0-25-26 (-165,) energy =    -742.7228548
N           1.2195796    -0.9261287    -0.4386745
H           1.2667827     0.0009061    -0.8395166
C           2.4251181    -1.5222901    -0.1144093
N           3.5130900    -0.7240464    -0.5069180
H           3.3971589    -0.2504541    -1.3979659
O           2.5407496    -2.5892595     0.4678591
C           7.5048286    -1.8068464    -0.3109846
H           8.5561557    -2.0765572    -0.3280887
C           6.7716731    -1.8226354     0.8748543
H           7.2547551    -2.0923788     1.8111146
C           5.4212987    -1.4641718     0.8917672
C           4.6535366    -1.3898022     2.1847709
H           5.3404079    -1.3697492     3.0368821
H           3.9756689    -2.2411895     2.2947373
H           4.0363956    -0.4842781     2.2211437
C           4.8618563    -1.1336089    -0.3606223
N           5.5567171    -1.0790196    -1.5015744
C           6.8533939    -1.4022905    -1.4720101
H           7.3836157    -1.3349464    -2.4201260
C          -2.7048609    -2.4709813    -0.3495694
H          -3.7212409    -2.8536604    -0.3345026
C          -1.6826751    -3.1486861     0.3159472
H          -1.9024988    -4.0663566     0.8553126
C          -0.3722801    -2.6702310     0.3124453
H           0.4164794    -3.1965971     0.8310221
C          -0.0741211    -1.4879532    -0.3817154
C          -1.0990015    -0.8079071    -1.0584377
H          -0.8697938     0.1052859    -1.6049033
C          -2.4035088    -1.2935204    -1.0359598
H          -3.1831972    -0.7505052    -1.5633742
30
192_C13H13N3O_2-0-25-26 (-150,) energy =    -742.7220647
N           1.1965362    -0.8339365    -0.3080200
H           1.2455444     0.0850000    -0.7275068
C           2.4040065    -1.4622713    -0.0493112
N           3.4940170    -0.6599696    -0.4228338
H           3.3656650    -0.1299854    -1.2796253
O           2.5138809    -2.5569329     0.4793581
C           7.4720914    -1.8083408    -0.3849694
H           8.5181817    -2.0923431    -0.4431069
C           6.7669519    -1.8806802     0.8156507
H           7.2675152    -2.2103502     1.7231145
C           5.4233513    -1.5036160     0.8859962
C           4.6883059    -1.4905984     2.1998744
H           5.3958257    -1.5298332     3.0342479
H           3.9986797    -2.3359787     2.2781156
H           4.0878916    -0.5789527     2.3024197
C           4.8397516    -1.0948061    -0.3317718
N           5.5083941    -0.9850258    -1.4843612
C           6.8000453    -1.3283453    -1.5047642
H           7.3088812    -1.2144395    -2.4601140
C          -2.6719933    -2.5124412    -0.4203553
H          -3.6732783    -2.9320577    -0.4543038
C          -1.7020793    -3.0647092     0.4176782
H          -1.9479302    -3.9195547     1.0421870
C          -0.4137836    -2.5338772     0.4796473
H           0.3376631    -2.9640881     1.1270852
C          -0.0840134    -1.4335065    -0.3245735
C          -1.0525717    -0.8845095    -1.1779509
H          -0.7945107    -0.0389912    -1.8129109
C          -2.3398492    -1.4148952    -1.2161196
H          -3.0793947    -0.9735131    -1.8788243
30
192_C13H13N3O_2-0-25-26 (-135,) energy =    -742.7207597
N           1.1714058    -0.7427869    -0.1942312
H           1.2210742     0.1737194    -0.6198551
C           2.3783898    -1.4017309    -0.0021565
N           3.4732573    -0.5965085    -0.3504772
H           3.3364004    -0.0097393    -1.1679050
O           2.4769490    -2.5240240     0.4653984
C           7.4325667    -1.8029299    -0.4648890
H           8.4726209    -2.0982863    -0.5618824
C           6.7504570    -1.9375172     0.7436474
H           7.2637802    -2.3288402     1.6189261
C           5.4147658    -1.5456218     0.8647930
C           4.7068393    -1.6011083     2.1923772
H           5.4305662    -1.7004427     3.0076668
H           4.0058395    -2.4396708     2.2341072
H           4.1228102    -0.6888115     2.3617713
C           4.8134904    -1.0552900    -0.3137268
N           5.4607766    -0.8855745    -1.4713012
C           6.7461235    -1.2459865    -1.5393753
H           7.2375837    -1.0818050    -2.4965179
C          -2.6263995    -2.5585908    -0.4728784
H          -3.6081941    -3.0176345    -0.5459241
C          -1.7314483    -2.9633874     0.5194438
H          -2.0161186    -3.7407814     1.2234344
C          -0.4719131    -2.3757948     0.6317552
H           0.2248965    -2.6896890     1.3977122
C          -0.0950852    -1.3757988    -0.2739243
C          -0.9824392    -0.9821251    -1.2844328
H          -0.6811611    -0.2200408    -2.0003353
C          -2.2471004    -1.5611249    -1.3724085
H          -2.9290909    -1.2402589    -2.1552296
30
192_C13H13N3O_2-0-25-26 (-120,) energy =    -742.7189864
N           1.1564849    -0.6663148    -0.0928751
H           1.2082479     0.2497661    -0.5205448
C           2.3592010    -1.3523596     0.0463145
N           3.4638854    -0.5455117    -0.2597608
H           3.3265458     0.1096825    -1.0230586
O           2.4396824    -2.5006243     0.4476806
C           7.4001335    -1.8028317    -0.5257424
H           8.4334748    -2.1066524    -0.6609375
C           6.7343806    -2.0134481     0.6810471
H           7.2545210    -2.4746170     1.5174179
C           5.4075345    -1.6100861     0.8522730
C           4.7202889    -1.7476571     2.1847287
H           5.4550769    -1.9202381     2.9776316
H           4.0018058    -2.5721656     2.1777896
H           4.1588699    -0.8382355     2.4294089
C           4.7965007    -1.0268826    -0.2779818
N           5.4289432    -0.7840587    -1.4308492
C           6.7068629    -1.1587262    -1.5457381
H           7.1864605    -0.9332738    -2.4964310
C          -2.5689059    -2.6058700    -0.5142700
H          -3.5300663    -3.1005926    -0.6220971
C          -1.7820170    -2.8363268     0.6161871
H          -2.1296731    -3.5133986     1.3917382
C          -0.5525182    -2.1968553     0.7685262
H           0.0628750    -2.3714440     1.6427157
C          -0.0974806    -1.3256432    -0.2272079
C          -0.8703054    -1.1152915    -1.3751134
H          -0.5005569    -0.4596655    -2.1604428
C          -2.1102991    -1.7394533    -1.5077690
H          -2.7085160    -1.5601735    -2.3970331
30
192_C13H13N3O_2-0-25-26 (-105,) energy =    -742.7169488
N           1.1500589    -0.6008402    -0.0199943
H           1.1960464     0.3255418    -0.4267002
C           2.3497828    -1.3027891     0.0674734
N           3.4615988    -0.4865942    -0.1807038
H           3.3258450     0.2364792    -0.8800373
O           2.4185143    -2.4760039     0.3892302
C           7.3806306    -1.7601321    -0.5877925
H           8.4089418    -2.0634275    -0.7580908
C           6.7235323    -2.0618815     0.6042879
H           7.2457863    -2.5959939     1.3947008
C           5.4033695    -1.6588311     0.8218283
C           4.7282269    -1.8964795     2.1463736
H           5.4691368    -2.1415289     2.9141597
H           3.9988103    -2.7085428     2.0803352
H           4.1810387    -1.0032545     2.4701469
C           4.7884023    -0.9781974    -0.2505800
N           5.4134116    -0.6482272    -1.3858725
C           6.6857361    -1.0262046    -1.5439664
H           7.1594051    -0.7282166    -2.4775458
C          -2.5257604    -2.6228174    -0.5175521
H          -3.4724732    -3.1409662    -0.6430218
C          -1.8672084    -2.6509841     0.7135986
H          -2.3001161    -3.1937125     1.5494306
C          -0.6572941    -1.9784339     0.8816747
H          -0.1377446    -1.9897676     1.8335458
C          -0.0958533    -1.2803264    -0.1907323
C          -0.7379848    -1.2759362    -1.4331250
H          -0.2810294    -0.7572130    -2.2725024
C          -1.9596491    -1.9311595    -1.5897259
H          -2.4592591    -1.9140013    -2.5545084
30
192_C13H13N3O_2-0-25-26 (-90,) energy =    -742.7166647
N           1.2105384    -0.6293079    -0.4299027
H           1.2192301     0.3045185    -0.0361007
C           2.4055613    -1.3351387    -0.3026511
N           3.5048222    -0.4678121    -0.2057877
H           3.4057173     0.3899684    -0.7407090
O           2.4794902    -2.5503452    -0.2965027
C           7.4918645    -1.5542577    -0.4806605
H           8.5434378    -1.7932139    -0.6052801
C           6.7242132    -2.1566658     0.5152360
H           7.1799285    -2.8695653     1.1985472
C           5.3737429    -1.8367752     0.6767950
C           4.5701117    -2.4144111     1.8115195
H           5.2327626    -2.8472678     2.5678272
H           3.8792830    -3.1849598     1.4580955
H           3.9624713    -1.6385870     2.2926380
C           4.8497652    -0.9108629    -0.2504742
N           5.5784163    -0.2967308    -1.1885062
C           6.8738681    -0.6090777    -1.2932722
H           7.4314480    -0.0789115    -2.0632151
C          -2.5547533    -2.5426297    -0.2416485
H          -3.5287959    -3.0222979    -0.1997397
C          -1.9813464    -2.0208455     0.9194261
H          -2.5060578    -2.0943656     1.8680947
C          -0.7279288    -1.4102854     0.8675389
H          -0.2698532    -1.0139109     1.7701546
C          -0.0481426    -1.3121477    -0.3499159
C          -0.6287188    -1.8192608    -1.5145295
H          -0.0941609    -1.7225245    -2.4542369
C          -1.8743447    -2.4444370    -1.4569382
H          -2.3181697    -2.8448180    -2.3642848
30
192_C13H13N3O_2-0-25-26 (-75,) energy =    -742.7183018
N           1.2069841    -0.6144849    -0.3670175
H           1.2180253     0.2806160     0.1082777
C           2.4097898    -1.3213833    -0.2979218
N           3.5004011    -0.4563841    -0.1323876
H           3.3903033     0.4456891    -0.5862101
O           2.4933231    -2.5320819    -0.3927031
C           7.4957562    -1.4757067    -0.5180411
H           8.5487641    -1.6928222    -0.6678526
C           6.7398110    -2.1689488     0.4262516
H           7.2061575    -2.9333276     1.0435165
C           5.3872188    -1.8773716     0.6215790
C           4.5955619    -2.5582743     1.7063795
H           5.2669077    -3.0429380     2.4224869
H           3.9143433    -3.3068589     1.2922478
H           3.9786589    -1.8340864     2.2516780
C           4.8498802    -0.8806593    -0.2203087
N           5.5667836    -0.1809198    -1.1056756
C           6.8644646    -0.4701932    -1.2434928
H           7.4125755     0.1296695    -1.9676774
C          -2.5686248    -2.5045433    -0.2518864
H          -3.5473498    -2.9757268    -0.2314545
C          -2.1214380    -1.7696209     0.8467896
H          -2.7488047    -1.6664781     1.7280052
C          -0.8609378    -1.1714199     0.8236975
H          -0.5037004    -0.6111068     1.6847012
C          -0.0470992    -1.2961341    -0.3061980
C          -0.5039915    -2.0113735    -1.4171924
H           0.1285602    -2.0859461    -2.2954517
C          -1.7538180    -2.6272291    -1.3798631
H          -2.0987808    -3.1915816    -2.2419275
30
192_C13H13N3O_2-0-25-26 (-60,) energy =    -742.7201629
N           1.2053308    -0.6288765    -0.2707940
H           1.2230656     0.2442114     0.2427216
C           2.4154910    -1.3237760    -0.2768433
N           3.4991545    -0.4619804    -0.0574937
H           3.3785000     0.4703749    -0.4423224
O           2.5133574    -2.5227113    -0.4663305
C           7.4983073    -1.4184083    -0.5505555
H           8.5514035    -1.6157402    -0.7250281
C           6.7567949    -2.1829458     0.3491184
H           7.2347640    -2.9852240     0.9064798
C           5.4039678    -1.9168909     0.5768314
C           4.6278464    -2.6788888     1.6180921
H           5.3095759    -3.2075869     2.2919327
H           3.9483852    -3.4022192     1.1585671
H           4.0109736    -2.0000682     2.2189254
C           4.8513116    -0.8676954    -0.1876767
N           5.5540972    -0.1008781    -1.0274375
C           6.8525317    -0.3692062    -1.1972103
H           7.3891739     0.2848761    -1.8819111
C          -2.5958052    -2.4641320    -0.2695493
H          -3.5810896    -2.9215600    -0.2784450
C          -2.2435291    -1.5711281     0.7426497
H          -2.9523995    -1.3279545     1.5295262
C          -0.9746343    -0.9916661     0.7570413
H          -0.6961681    -0.3068988     1.5554136
C          -0.0518639    -1.2936441    -0.2503652
C          -0.4114818    -2.1700069    -1.2812214
H           0.3022984    -2.3920411    -2.0659816
C          -1.6727310    -2.7622080    -1.2749245
H          -1.9407391    -3.4506013    -2.0718306
30
192_C13H13N3O_2-0-25-26 (-45,) energy =    -742.7216407
N           1.2068915    -0.6810760    -0.1509538
H           1.2255237     0.1817846     0.3781703
C           2.4235588    -1.3529600    -0.2318559
N           3.4991843    -0.4868474     0.0149923
H           3.3604106     0.4619743    -0.3203631
O           2.5402053    -2.5369498    -0.4948909
C           7.5010046    -1.3557928    -0.6002646
H           8.5534819    -1.5273321    -0.8033455
C           6.7863762    -2.1803150     0.2675996
H           7.2854362    -3.0052068     0.7707958
C           5.4342376    -1.9475576     0.5329711
C           4.6869107    -2.7785500     1.5420637
H           5.3877235    -3.3278397     2.1788448
H           4.0162077    -3.4910319     1.0535129
H           4.0644765    -2.1452221     2.1851981
C           4.8538777    -0.8655400    -0.1618787
N           5.5306211    -0.0429462    -0.9697293
C           6.8293712    -0.2820023    -1.1764462
H           7.3444974     0.4168590    -1.8328351
C          -2.6361441    -2.4132762    -0.3174138
H          -3.6325469    -2.8431203    -0.3653602
C          -2.3473693    -1.4052013     0.6028023
H          -3.1170895    -1.0424942     1.2787056
C          -1.0658519    -0.8603275     0.6682450
H          -0.8415054    -0.0822781     1.3954400
C          -0.0603042    -1.3138067    -0.1949031
C          -0.3518610    -2.3119121    -1.1345807
H           0.4240836    -2.6608360    -1.8037528
C          -1.6317322    -2.8618225    -1.1780148
H          -1.8466222    -3.6420563    -1.9033143
30
192_C13H13N3O_2-0-25-26 (-30,) energy =    -742.7225606
N           1.2089985    -0.7457785    -0.0339829
H           1.2312560     0.1139987     0.4988909
C           2.4304514    -1.3867144    -0.1895127
N           3.4968803    -0.5172765     0.0891712
H           3.3408859     0.4464722    -0.1913653
O           2.5666385    -2.5510449    -0.5257996
C           7.5007445    -1.2910427    -0.6295792
H           8.5523701    -1.4355608    -0.8566542
C           6.8119765    -2.1703610     0.2047696
H           7.3308352    -3.0122887     0.6571674
C           5.4608544    -1.9726570     0.5016094
C           4.7416710    -2.8659669     1.4773179
H           5.4601974    -3.4370463     2.0738998
H           4.0736114    -3.5623128     0.9625294
H           4.1206038    -2.2762624     2.1619300
C           4.8538698    -0.8652970    -0.1275117
N           5.5058095     0.0084480    -0.9013729
C           6.8046447    -0.1992935    -1.1390950
H           7.2993050     0.5406047    -1.7655517
C          -2.6782376    -2.3508605    -0.3639181
H          -3.6859459    -2.7470005    -0.4494552
C          -2.4190348    -1.2525964     0.4569094
H          -3.2234033    -0.7840537     1.0176147
C          -1.1247704    -0.7499708     0.5694308
H          -0.9284537     0.1032365     1.2163419
C          -0.0698177    -1.3377607    -0.1436782
C          -0.3280369    -2.4334532    -0.9803274
H           0.4834418    -2.8917841    -1.5286410
C          -1.6266231    -2.9324902    -1.0742830
H          -1.8149527    -3.7860704    -1.7201540
30
192_C13H13N3O_2-0-25-26 (-15,) energy =    -742.7230409
N           1.2122751    -0.8209082     0.0847048
H           1.2352988     0.0416759     0.6120775
C           2.4366086    -1.4250687    -0.1465429
N           3.4973737    -0.5524450     0.1509489
H           3.3264598     0.4194774    -0.0900484
O           2.5870703    -2.5670315    -0.5496672
C           7.4966562    -1.2432176    -0.6694596
H           8.5459048    -1.3640737    -0.9201011
C           6.8328260    -2.1673955     0.1362062
H           7.3694379    -3.0218830     0.5419475
C           5.4847669    -2.0003534     0.4638707
C           4.7925496    -2.9452980     1.4099332
H           5.5275469    -3.5323978     1.9697585
H           4.1257939    -3.6276122     0.8748974
H           4.1746614    -2.3949525     2.1293038
C           4.8537871    -0.8738975    -0.1049285
N           5.4818092     0.0413530    -0.8501456
C           6.7787791    -0.1390797    -1.1184134
H           7.2536051     0.6339728    -1.7196757
C          -2.7035633    -2.3055758    -0.4229511
H          -3.7184914    -2.6706452    -0.5505877
C          -2.4580979    -1.1396006     0.3038189
H          -3.2807108    -0.5859096     0.7484400
C          -1.1558132    -0.6754554     0.4678805
H          -0.9729529     0.2345537     1.0368192
C          -0.0746947    -1.3718368    -0.0948926
C          -0.3166857    -2.5416963    -0.8308054
H           0.5135879    -3.0854217    -1.2588015
C          -1.6270518    -2.9950099    -0.9824934
H          -1.8026051    -3.9040851    -1.5517866
30
192_C13H13N3O_2-0-25-26 (0,) energy =    -742.7231336
N           1.2130352    -0.8785205     0.1994485
H           1.2367686    -0.0133346     0.7220992
C           2.4370711    -1.4489297    -0.0995541
N           3.4933166    -0.5787488     0.2216721
H           3.3094633     0.4019146     0.0309980
O           2.5941365    -2.5673167    -0.5633868
C           7.4862019    -1.1824575    -0.6934208
H           8.5326641    -1.2785134    -0.9655295
C           6.8459207    -2.1514628     0.0779383
H           7.3986891    -3.0174198     0.4346771
C           5.5014356    -2.0164439     0.4336213
C           4.8347645    -3.0136481     1.3436674
H           5.5848381    -3.6178654     1.8638820
H           4.1679201    -3.6777551     0.7862891
H           4.2215488    -2.5057907     2.0974457
C           4.8486182    -0.8721086    -0.0713969
N           5.4541011     0.0844050    -0.7826960
C           6.7486049    -0.0674980    -1.0791578
H           7.2048367     0.7384347    -1.6509139
C          -2.7155000    -2.2607047    -0.4698813
H          -3.7338513    -2.6002690    -0.6350206
C          -2.4716548    -1.0333808     0.1486991
H          -3.2987719    -0.4058584     0.4697328
C          -1.1657083    -0.5997125     0.3581089
H          -0.9839704     0.3609656     0.8370299
C          -0.0783322    -1.3909195    -0.0460669
C          -0.3179254    -2.6267967    -0.6659887
H           0.5172774    -3.2408001    -0.9715272
C          -1.6330925    -3.0442549    -0.8714669
H          -1.8070581    -4.0030226    -1.3530406
30
192_C13H13N3O_2-0-25-26 (15,) energy =    -742.7228862
N           1.2149216    -0.9364639     0.3234200
H           1.2384855    -0.0641003     0.8339551
C           2.4365843    -1.4710477    -0.0439540
N           3.4937180    -0.6080609     0.2923826
H           3.3008630     0.3792155     0.1514104
O           2.5913450    -2.5653476    -0.5629273
C           7.4702969    -1.1424650    -0.7304003
H           8.5114033    -1.2190001    -1.0279958
C           6.8518116    -2.1500542     0.0086755
H           7.4168433    -3.0276970     0.3139749
C           5.5142723    -2.0404601     0.3975767
C           4.8722954    -3.0825227     1.2743828
H           5.6362906    -3.7057285     1.7499998
H           4.1969455    -3.7240361     0.7009117
H           4.2729027    -2.6136043     2.0636755
C           4.8443044    -0.8787179    -0.0408038
N           5.4294004     0.1133887    -0.7196829
C           6.7183487    -0.0160160    -1.0492947
H           7.1579186     0.8183588    -1.5926109
C          -2.7094897    -2.2263980    -0.5288907
H          -3.7267903    -2.5443805    -0.7378222
C          -2.4596832    -0.9523708    -0.0162123
H          -3.2807574    -0.2672561     0.1772372
C          -1.1547575    -0.5448138     0.2466230
H          -0.9670989     0.4535022     0.6380731
C          -0.0762536    -1.4107001     0.0061318
C          -0.3230051    -2.6961871    -0.4990315
H           0.5070388    -3.3643384    -0.6798974
C          -1.6356422    -3.0851342    -0.7668915
H          -1.8153614    -4.0815265    -1.1622387
30
192_C13H13N3O_2-0-25-26 (30,) energy =    -742.7221903
N           1.2123725    -0.9847884     0.4558853
H           1.2327233    -0.1014833     0.9477893
C           2.4300568    -1.4871246     0.0280056
N           3.4907889    -0.6358074     0.3780095
H           3.2905207     0.3566018     0.2967832
O           2.5748190    -2.5567516    -0.5420326
C           7.4420138    -1.0912481    -0.7734683
H           8.4750812    -1.1457609    -1.1023065
C           6.8483148    -2.1395834    -0.0716951
H           7.4255300    -3.0283746     0.1724597
C           5.5212000    -2.0586817     0.3579259
C           4.9088771    -3.1485313     1.1970037
H           5.6889221    -3.7905369     1.6185089
H           4.2209047    -3.7635445     0.6097488
H           4.3293780    -2.7245980     2.0255912
C           4.8339189    -0.8802481    -0.0021299
N           5.3960630     0.1496561    -0.6431452
C           6.6763744     0.0456331    -1.0127830
H           7.0973255     0.9100494    -1.5228514
C          -2.6890344    -2.1970459    -0.5940137
H          -3.7002981    -2.4984017    -0.8515147
C          -2.4226139    -0.8832930    -0.2053919
H          -3.2242146    -0.1510656    -0.1583454
C          -1.1240204    -0.4966533     0.1171636
H          -0.9203923     0.5323498     0.4076695
C          -0.0730322    -1.4242098     0.0640817
C          -0.3391051    -2.7498599    -0.3086578
H           0.4719132    -3.4637882    -0.3467943
C          -1.6415922    -3.1182117    -0.6448062
H          -1.8366866    -4.1457620    -0.9403501
30
192_C13H13N3O_2-0-25-26 (45,) energy =    -742.7209841
N           1.1917499    -1.0262458     0.5814187
H           1.2081870    -0.1295844     1.0497143
C           2.4065884    -1.4948270     0.0991362
N           3.4722611    -0.6615740     0.4693110
H           3.2671516     0.3329069     0.4658085
O           2.5383229    -2.5361208    -0.5228747
C           7.3926952    -1.0225875    -0.8128704
H           8.4164583    -1.0513766    -1.1726608
C           6.8240862    -2.1133117    -0.1564402
H           7.4124759    -3.0106521     0.0204832
C           5.5090881    -2.0660853     0.3137259
C           4.9266386    -3.2054663     1.1070334
H           5.7217457    -3.8656835     1.4679350
H           4.2236934    -3.7894664     0.5061691
H           4.3704137    -2.8324478     1.9750984
C           4.8062129    -0.8736932     0.0402614
N           5.3451586     0.1953484    -0.5550229
C           6.6152220     0.1212695    -0.9649343
H           7.0176781     1.0163994    -1.4354238
C          -2.6691131    -2.1794941    -0.6688038
H          -3.6698549    -2.4701258    -0.9753847
C          -2.3691503    -0.8389708    -0.4234266
H          -3.1342133    -0.0758366    -0.5381775
C          -1.0820792    -0.4670020    -0.0391174
H          -0.8482264     0.5810521     0.1373147
C          -0.0820022    -1.4364038     0.1144730
C          -0.3856201    -2.7865073    -0.1077060
H           0.3881910    -3.5324058     0.0164565
C          -1.6710535    -3.1434892    -0.5126444
H          -1.8953893    -4.1912920    -0.6938596
30
192_C13H13N3O_2-0-25-26 (60,) energy =    -742.7192377
N           1.1793075    -1.0719432     0.6952865
H           1.1910262    -0.1734669     1.1616050
C           2.3878688    -1.5063133     0.1589881
N           3.4618628    -0.6970735     0.5537773
H           3.2563351     0.2943914     0.6281692
O           2.5008972    -2.5115155    -0.5216938
C           7.3509942    -0.9586481    -0.8430003
H           8.3659546    -0.9597643    -1.2280008
C           6.8002798    -2.0927413    -0.2476507
H           7.3945689    -2.9977339    -0.1449836
C           5.4968615    -2.0816763     0.2558769
C           4.9366216    -3.2731143     0.9861501
H           5.7416333    -3.9541063     1.2804039
H           4.2175292    -3.8165228     0.3667162
H           4.4040033    -2.9600465     1.8919129
C           4.7852188    -0.8761269     0.0796288
N           5.3079401     0.2321512    -0.4556072
C           6.5680085     0.1901214    -0.8995732
H           6.9574726     1.1161592    -1.3184091
C          -2.6363666    -2.1675030    -0.7355128
H          -3.6259274    -2.4456640    -1.0869987
C          -2.2721445    -0.8228246    -0.6562356
H          -2.9749128    -0.0465287    -0.9465194
C          -0.9982249    -0.4665935    -0.2140243
H          -0.7088408     0.5810944    -0.1674382
C          -0.0833159    -1.4557563     0.1640138
C          -0.4551616    -2.8043315     0.1108076
H           0.2560657    -3.5627169     0.4148333
C          -1.7215801    -3.1524759    -0.3558038
H          -1.9999137    -4.2016463    -0.4069441
30
192_C13H13N3O_2-0-25-26 (75,) energy =    -742.7171394
N           1.1827643    -1.0997313     0.7918339
H           1.1894727    -0.2119080     1.2790237
C           2.3848067    -1.5024890     0.2157276
N           3.4704072    -0.7330498     0.6543763
H           3.2708609     0.2470483     0.8272670
O           2.4798900    -2.4590066    -0.5334979
C           7.3268586    -0.8778930    -0.8462379
H           8.3327583    -0.8473354    -1.2532296
C           6.7870446    -2.0576257    -0.3356388
H           7.3813237    -2.9683545    -0.3226262
C           5.4955924    -2.0881179     0.1972008
C           4.9505014    -3.3357437     0.8399098
H           5.7611698    -4.0383978     1.0580471
H           4.2153029    -3.8257459     0.1955573
H           4.4401351    -3.0977524     1.7806341
C           4.7826117    -0.8717996     0.1384029
N           5.2960643     0.2773583    -0.3135136
C           6.5457428     0.2720361    -0.7877803
H           6.9281702     1.2298635    -1.1357030
C          -2.6012083    -2.1609794    -0.7545968
H          -3.5819644    -2.4310531    -1.1361412
C          -2.1361210    -0.8514264    -0.8829417
H          -2.7513295    -0.0972700    -1.3661214
C          -0.8730991    -0.5063610    -0.4006352
H          -0.5007600     0.5092012    -0.5130468
C          -0.0748324    -1.4699702     0.2233125
C          -0.5493184    -2.7763965     0.3740649
H           0.0741514    -3.5101745     0.8731176
C          -1.8022470    -3.1216415    -0.1302804
H          -2.1615575    -4.1412995    -0.0212950
30
192_C13H13N3O_2-0-25-26 (90,) energy =    -742.7165472
N           1.1351320    -0.7899922     0.6362309
H           1.1984521    -0.5358022     1.6153159
C           2.3262644    -1.2292596     0.0615865
N           3.4417378    -0.7043729     0.7331810
H           3.3012407     0.2308118     1.1038863
O           2.3838438    -1.9605606    -0.9099148
C           7.3651517    -0.8538179    -0.5842286
H           8.3953995    -0.8233847    -0.9249472
C           6.6930682    -2.0635730    -0.4143976
H           7.2050169    -3.0035150    -0.6073890
C           5.3703412    -2.0963423     0.0344280
C           4.6767138    -3.4040698     0.3098470
H           5.4060165    -4.2182313     0.3710994
H           3.9443710    -3.6376958    -0.4679702
H           4.1300011    -3.3622472     1.2595545
C           4.7689235    -0.8390639     0.2563964
N           5.4082953     0.3289059     0.1333230
C           6.6821561     0.3172302    -0.2715050
H           7.1669966     1.2887041    -0.3488255
C          -2.5712703    -2.4174878    -0.5850058
H          -3.5261193    -2.8300229    -0.8991715
C          -2.0372074    -1.3081686    -1.2432770
H          -2.5743642    -0.8548543    -2.0718414
C          -0.8149356    -0.7727549    -0.8362930
H          -0.3898846     0.0932198    -1.3339184
C          -0.1191457    -1.3524270     0.2265776
C          -0.6434637    -2.4751007     0.8739787
H          -0.0859663    -2.9342453     1.6862836
C          -1.8735062    -2.9988058     0.4755326
H          -2.2802491    -3.8674984     0.9860757
30
192_C13H13N3O_2-0-25-26 (105,) energy =    -742.7180980
N           1.1347243    -0.8224333     0.6799405
H           1.2118935    -0.6596669     1.6773840
C           2.3245310    -1.2193565     0.0653974
N           3.4422026    -0.7606186     0.7777639
H           3.3056355     0.1365361     1.2342575
O           2.3769413    -1.8629988    -0.9661956
C           7.3616608    -0.7997834    -0.5592985
H           8.3910469    -0.7408127    -0.8988626
C           6.6877629    -2.0186749    -0.4958626
H           7.1972980    -2.9385636    -0.7732692
C           5.3660777    -2.0889934    -0.0478322
C           4.6704629    -3.4148239     0.1116899
H           5.3983114    -4.2324194     0.0980054
H           3.9358733    -3.5771936    -0.6819929
H           4.1259911    -3.4572667     1.0625892
C           4.7683768    -0.8553357     0.2868099
N           5.4091959     0.3178613     0.2663841
C           6.6818567     0.3400652    -0.1417290
H           7.1683209     1.3137158    -0.1337607
C          -2.5743088    -2.4214786    -0.5584671
H          -3.5304236    -2.8272306    -0.8771842
C          -1.9073725    -1.4888915    -1.3559308
H          -2.3422453    -1.1675148    -2.2983844
C          -0.6860686    -0.9563599    -0.9454057
H          -0.1636806    -0.2253241    -1.5534655
C          -0.1197693    -1.3665184     0.2644945
C          -0.7717594    -2.3213238     1.0509674
H          -0.3142607    -2.6582180     1.9782647
C          -2.0052490    -2.8334758     0.6475890
H          -2.5123971    -3.5660701     1.2696020
30
192_C13H13N3O_2-0-25-26 (120,) energy =    -742.7199126
N           1.1502108    -0.8865264     0.7128102
H           1.2309348    -0.7698709     1.7159100
C           2.3434292    -1.2202258     0.0696612
N           3.4555420    -0.8050483     0.8155746
H           3.3125229     0.0540155     1.3385089
O           2.4053260    -1.7830262    -1.0081229
C           7.3752069    -0.7199529    -0.5180480
H           8.4039832    -0.6296322    -0.8524872
C           6.7107475    -1.9454311    -0.5410307
H           7.2270124    -2.8396984    -0.8823774
C           5.3897187    -2.0571177    -0.0993408
C           4.7043588    -3.3962174    -0.0331494
H           5.4388448    -4.2051440    -0.1004562
H           3.9734892    -3.5101056    -0.8386639
H           4.1575997    -3.5081566     0.9107038
C           4.7831077    -0.8545026     0.3207555
N           5.4147967     0.3220051     0.3840636
C           6.6871922     0.3826106    -0.0210207
H           7.1664846     1.3567715     0.0560358
C          -2.5975111    -2.3720080    -0.5396290
H          -3.5650665    -2.7489576    -0.8588152
C          -1.8076850    -1.6271230    -1.4185049
H          -2.1596724    -1.4232574    -2.4261123
C          -0.5702657    -1.1296205    -1.0137812
H           0.0443731    -0.5480729    -1.6911068
C          -0.1086051    -1.3903424     0.2809377
C          -0.8856527    -2.1581397     1.1552109
H          -0.5137487    -2.3803833     2.1531479
C          -2.1336060    -2.6318531     0.7504494
H          -2.7345192    -3.2171640     1.4412163
30
192_C13H13N3O_2-0-25-26 (135,) energy =    -742.7214356
N           1.1647701    -1.0224452     0.7377346
H           1.2465134    -0.9239017     1.7420000
C           2.3590658    -1.2859393     0.0715602
N           3.4644169    -0.8914764     0.8395203
H           3.3071416    -0.0650900     1.4089482
O           2.4337930    -1.7831074    -1.0381712
C           7.3799546    -0.6529748    -0.4867636
H           8.4065126    -0.5231434    -0.8149424
C           6.7398989    -1.8880419    -0.5799323
H           7.2737869    -2.7507939    -0.9715105
C           5.4216424    -2.0511807    -0.1457338
C           4.7629383    -3.4051979    -0.1560722
H           5.5138788    -4.1944410    -0.2634729
H           4.0380582    -3.4898128    -0.9705737
H           4.2144461    -3.5794819     0.7771918
C           4.7919300    -0.8867529     0.3420452
N           5.3999945     0.2967010     0.4725094
C           6.6705557     0.4056229     0.0720256
H           7.1304133     1.3831442     0.2046774
C          -2.6607099    -2.2959133    -0.5057066
H          -3.6501309    -2.6173256    -0.8182000
C          -1.7697133    -1.7528722    -1.4340373
H          -2.0654073    -1.6496749    -2.4746438
C          -0.5004359    -1.3282880    -1.0449710
H           0.1894173    -0.9092994    -1.7663651
C          -0.1082564    -1.4604581     0.2933519
C          -0.9926829    -2.0211170     1.2235191
H          -0.6822081    -2.1391284     2.2598471
C          -2.2669378    -2.4240298     0.8266934
H          -2.9457895    -2.8496503     1.5607949
30
192_C13H13N3O_2-0-25-26 (150,) energy =    -742.7224448
N           1.1815273    -1.1611732     0.7479148
H           1.2641312    -1.0721682     1.7524310
C           2.3762633    -1.3406561     0.0632116
N           3.4736147    -0.9668935     0.8548200
H           3.3020661    -0.1754617     1.4680575
O           2.4668600    -1.7640619    -1.0767026
C           7.3833311    -0.5822859    -0.4539371
H           8.4072248    -0.4154516    -0.7735862
C           6.7670232    -1.8225494    -0.6141195
H           7.3172632    -2.6525918    -1.0511383
C           5.4521385    -2.0337712    -0.1907908
C           4.8189726    -3.3972809    -0.2756326
H           5.5843598    -4.1654058    -0.4255684
H           4.0959077    -3.4507984    -1.0944618
H           4.2739658    -3.6326348     0.6462092
C           4.8003050    -0.9096250     0.3586964
N           5.3856229     0.2765375     0.5529641
C           6.6539239     0.4309923     0.1602872
H           7.0950911     1.4085171     0.3457712
C          -2.7129300    -2.2208524    -0.4806918
H          -3.7212311    -2.4873160    -0.7841309
C          -1.7536224    -1.8801464    -1.4359433
H          -2.0149174    -1.8797679    -2.4908810
C          -0.4561066    -1.5307957    -1.0636458
H           0.2847056    -1.2752668    -1.8088038
C          -0.1053917    -1.5312021     0.2940560
C          -1.0641577    -1.8820130     1.2554091
H          -0.7923868    -1.8908027     2.3094327
C          -2.3601511    -2.2167718     0.8693824
H          -3.0910090    -2.4820143     1.6286051
30
192_C13H13N3O_2-0-25-26 (165,) energy =    -742.7230091
N           1.2554751    -1.0831099    -0.7156795
H           1.3014183    -0.1448916    -1.0904534
C           2.4450568    -1.6058346    -0.2363721
N           3.5398435    -0.8268805    -0.6479474
H           3.4587272    -0.4444541    -1.5855597
O           2.5410192    -2.6047884     0.4579170
C           7.5303389    -1.8207021    -0.1642617
H           8.5843281    -2.0740229    -0.1068849
C           6.7414466    -1.7362322     0.9821982
H           7.1824669    -1.9087756     1.9611976
C           5.3877032    -1.3992420     0.9022621
C           4.5585075    -1.2148056     2.1454847
H           5.2040850    -1.1010868     3.0221935
H           3.8870203    -2.0630923     2.3061861
H           3.9288168    -0.3207492     2.0659737
C           4.8852770    -1.1976849    -0.4006331
N           5.6332688    -1.2395515    -1.5079918
C           6.9306615    -1.5377454    -1.3874983
H           7.5048848    -1.5514931    -2.3119791
C          -2.7103873    -2.4204821    -0.1889578
H          -3.7371260    -2.7520692    -0.0644673
C          -1.6490304    -3.2726819     0.1187491
H          -1.8480974    -4.2762354     0.4856080
C          -0.3237185    -2.8661423    -0.0353716
H           0.4938279    -3.5274136     0.2146378
C          -0.0517288    -1.5726204    -0.5058625
C          -1.1172154    -0.7119772    -0.8127491
H          -0.9106137     0.2932006    -1.1762917
C          -2.4345160    -1.1350918    -0.6576277
H          -3.2450561    -0.4537057    -0.9019450
30
192_C13H13N3O_2-0-25-26 (180,) energy =    -742.7231344
N           1.2409681    -1.0191367    -0.5807892
H           1.2863985    -0.0825482    -0.9590437
C           2.4397744    -1.5792246    -0.1775181
N           3.5296182    -0.7852267    -0.5745810
H           3.4313671    -0.3547705    -1.4894081
O           2.5500808    -2.6160090     0.4577115
C           7.5249002    -1.8178550    -0.2303933
H           8.5787607    -2.0772892    -0.2096434
C           6.7619283    -1.7878657     0.9361649
H           7.2239760    -2.0105656     1.8951295
C           5.4083257    -1.4426002     0.9033081
C           4.6070149    -1.3182138     2.1719394
H           5.2717152    -1.2507706     3.0390711
H           3.9357731    -2.1716412     2.3043499
H           3.9793836    -0.4194431     2.1510611
C           4.8780007    -1.1740877    -0.3762526
N           5.6009919    -1.1638720    -1.5007958
C           6.8993282    -1.4724395    -1.4242469
H           7.4527609    -1.4423763    -2.3609341
C          -2.7180034    -2.4416367    -0.2669304
H          -3.7433099    -2.7927943    -0.1958341
C          -1.6682069    -3.2157939     0.2283900
H          -1.8747058    -4.1778395     0.6901763
C          -0.3447702    -2.7817464     0.1490286
H           0.4636967    -3.3819639     0.5414331
C          -0.0622900    -1.5420052    -0.4446515
C          -1.1167971    -0.7616648    -0.9454193
H          -0.9020193     0.1993552    -1.4097097
C          -2.4319883    -1.2083178    -0.8547241
H          -3.2331625    -0.5881208    -1.2477222
