24
141_C12H9NO2_0-5-6-17 (-165,) energy =    -667.9044265
N           0.2203583    -0.2771034     1.7352254
H           0.6088410    -0.5046014     2.6472933
C          -1.1793043    -0.1973724     1.6407900
C          -1.6409454     0.0415467     0.2769340
H          -2.7145912     0.1123784     0.1421124
C           1.1076586    -0.1571129     0.7021344
C           2.5368388    -0.3728774     1.1054969
C          -0.7705217     0.1485049    -0.7680187
H          -1.1493339     0.3076016    -1.7745772
C           5.8870629     0.7616845    -1.3227122
H           6.7497154     1.0415105    -1.9212336
C           4.7262780     1.5353026    -1.3672672
H           4.6873922     2.4254223    -1.9887995
C           0.6395749     0.0516325    -0.5706732
H           1.3232884     0.1069548    -1.4064762
C           3.6138223     1.1729999    -0.6076980
H           2.7242993     1.7937697    -0.6264165
C           3.6601269     0.0348796     0.2135710
C           4.8434757    -0.7198263     0.2752575
H           4.8778128    -1.5804693     0.9353663
C           5.9440710    -0.3666691    -0.4987463
H           6.8497992    -0.9649731    -0.4564025
O           2.7541319    -0.9064177     2.1899739
O          -1.8871481    -0.3274522     2.6320287
24
141_C12H9NO2_0-5-6-17 (-150,) energy =    -667.9033626
N           0.2599565    -0.2181569     1.7169402
H           0.6514483    -0.4331179     2.6300478
C          -1.1320596    -0.0174592     1.6649144
C          -1.6277443     0.1577502     0.3044204
H          -2.6954256     0.3174495     0.2025885
C           1.1053060    -0.2738131     0.6441799
C           2.5312838    -0.5836628     0.9999758
C          -0.7969267     0.1010431    -0.7765154
H          -1.2035092     0.2169327    -1.7781735
C           5.8864126     0.8737466    -1.2400569
H           6.7505701     1.2364239    -1.7900398
C           4.6727438     1.5582726    -1.3180678
H           4.5926230     2.4600464    -1.9184485
C           0.6062146    -0.1091353    -0.6224057
H           1.2611260    -0.1705915    -1.4815371
C           3.5591879     1.0915661    -0.6195684
H           2.6251647     1.6407278    -0.6669131
C           3.6570576    -0.0635176     0.1730819
C           4.8900365    -0.7325681     0.2635420
H           4.9577805    -1.6106139     0.8974707
C           5.9935625    -0.2733759    -0.4468169
H           6.9394827    -0.8034680    -0.3807431
O           2.7395328    -1.2347232     2.0195975
O          -1.8027073    -0.0046187     2.6899746
24
141_C12H9NO2_0-5-6-17 (-135,) energy =    -667.9008704
N           0.3183879    -0.1526371     1.6795641
H           0.7230238    -0.3307086     2.5941486
C          -1.0561150     0.1629754     1.6722267
C          -1.6053002     0.2690431     0.3269574
H          -2.6601636     0.5108074     0.2599104
C           1.0945175    -0.3779133     0.5772825
C           2.5160478    -0.7710385     0.8789393
C          -0.8386618     0.0545622    -0.7816722
H          -1.2859301     0.1262016    -1.7701151
C           5.8756165     0.9700683    -1.1387287
H           6.7403637     1.4042575    -1.6332485
C           4.6254758     1.5785680    -1.2590875
H           4.5162423     2.4904417    -1.8392241
C           0.5487409    -0.2620465    -0.6740899
H           1.1566636    -0.4352611    -1.5531616
C           3.5120489     1.0211410    -0.6305165
H           2.5460022     1.5065273    -0.7153221
C           3.6466016    -0.1494196     0.1334984
C           4.9133082    -0.7466276     0.2611939
H           5.0041680    -1.6421105     0.8671079
C           6.0180409    -0.1946176    -0.3766205
H           6.9918673    -0.6662734    -0.2800514
O           2.7112628    -1.5423668     1.8122933
O          -1.6646491     0.3173164     2.7241727
24
141_C12H9NO2_0-5-6-17 (-120,) energy =    -667.8977201
N           0.4129611    -0.0902397     1.6372382
H           0.8558142    -0.2019060     2.5439661
C          -0.9357648     0.3299876     1.6822954
C          -1.5648595     0.3559973     0.3706366
H          -2.6023856     0.6696354     0.3442159
C           1.0941293    -0.4727645     0.5156314
C           2.5126327    -0.9366087     0.7515808
C          -0.8887776    -0.0108908    -0.7571420
H          -1.3940519     0.0099564    -1.7197587
C           5.8624020     1.0679335    -1.0184710
H           6.7237462     1.5691113    -1.4518377
C           4.5863535     1.6095950    -1.1809011
H           4.4529620     2.5338666    -1.7357292
C           0.4773761    -0.4205106    -0.7050992
H           1.0156866    -0.7050139    -1.6010652
C           3.4785319     0.9673985    -0.6283585
H           2.4892823     1.3950305    -0.7508871
C           3.6445824    -0.2223158     0.0987083
C           4.9349232    -0.7570011     0.2630636
H           5.0457937    -1.6726411     0.8345184
C           6.0353142    -0.1174823    -0.2950863
H           7.0291480    -0.5372977    -0.1679517
O           2.6963049    -1.8335835     1.5649615
O          -1.4534897     0.6260544     2.7525674
24
141_C12H9NO2_0-5-6-17 (-105,) energy =    -667.8949688
N           0.5034154     0.0066462     1.5691343
H           1.0048882     0.0040474     2.4515207
C          -0.8183528     0.5076613     1.6523300
C          -1.5386683     0.4161521     0.3936488
H          -2.5580143     0.7853722     0.3970618
C           1.0814717    -0.5410243     0.4580806
C           2.4955862    -1.0592836     0.6385794
C          -0.9630593    -0.1163347    -0.7241676
H          -1.5336867    -0.1751874    -1.6479870
C           5.8358636     1.1462191    -0.8864090
H           6.6930736     1.6982703    -1.2623393
C           4.5479372     1.6543924    -1.0649435
H           4.4010591     2.6009187    -1.5771225
C           0.3801498    -0.5988199    -0.7141960
H           0.8370305    -1.0144847    -1.6043249
C           3.4462506     0.9472524    -0.5849178
H           2.4456498     1.3427251    -0.7261971
C           3.6305832    -0.2740631     0.0823670
C           4.9312658    -0.7777330     0.2598451
H           5.0536282    -1.7216524     0.7808743
C           6.0263912    -0.0715643    -0.2234458
H           7.0296913    -0.4645972    -0.0855580
O           2.6632781    -2.0682701     1.3082038
O          -1.2356543     0.9571364     2.7131968
24
141_C12H9NO2_0-5-6-17 (-90,) energy =    -667.8937838
N           0.6148858     0.1346637     1.4535274
H           1.1965918     0.2587658     2.2757534
C          -0.6803294     0.6972895     1.5759514
C          -1.5068288     0.4724187     0.4035363
H          -2.5095730     0.8830945     0.4378568
C           1.0836622    -0.5668670     0.3774360
C           2.4888354    -1.1338054     0.4968473
C          -1.0429624    -0.2227526    -0.6767330
H          -1.6911385    -0.3747962    -1.5365691
C           5.8443544     1.2097127    -0.7607067
H           6.7038889     1.7960663    -1.0741433
C           4.5562729     1.7255677    -0.9168187
H           4.4118994     2.7105432    -1.3512081
C           0.2785999    -0.7598072    -0.7097326
H           0.6419003    -1.3138911    -1.5668211
C           3.4520184     0.9750844    -0.5157169
H           2.4505954     1.3743912    -0.6431863
C           3.6339299    -0.2980166     0.0471162
C           4.9338502    -0.8104843     0.2003153
H           5.0532398    -1.7965645     0.6373962
C           6.0321977    -0.0597353    -0.2021643
H           7.0357145    -0.4581196    -0.0824297
O           2.6326142    -2.2471447     0.9770947
O          -0.9881989     1.2985325     2.5986526
24
141_C12H9NO2_0-5-6-17 (-75,) energy =    -667.8946573
N           0.6983063     0.2248270     1.3195488
H           1.3560669     0.4746017     2.0508561
C          -0.5819056     0.8118719     1.4758795
C          -1.5066265     0.4367079     0.4210385
H          -2.5017287     0.8625168     0.4828180
C           1.0769973    -0.6148526     0.3069775
C           2.4787205    -1.1923328     0.3643665
C          -1.1381460    -0.4059656    -0.5890190
H          -1.8585017    -0.6662700    -1.3608871
C           5.8463176     1.2637551    -0.6261025
H           6.7085692     1.8752800    -0.8778669
C           4.5587244     1.7859083    -0.7637254
H           4.4171567     2.8007068    -1.1240569
C           0.1737542    -0.9610890    -0.6584025
H           0.4601457    -1.6428201    -1.4496704
C           3.4512188     1.0034216    -0.4397914
H           2.4515207     1.4107741    -0.5553553
C           3.6287284    -0.3100258     0.0235421
C           4.9280877    -0.8288514     0.1565719
H           5.0441569    -1.8474396     0.5124105
C           6.0299274    -0.0450944    -0.1660937
H           7.0329300    -0.4488800    -0.0609882
O           2.6174873    -2.3707365     0.6521493
O          -0.8015440     1.5505092     2.4291539
24
141_C12H9NO2_0-5-6-17 (-60,) energy =    -667.8966948
N           0.7790644     0.3237479     1.1748107
H           1.5053581     0.6542571     1.8017493
C          -0.4836370     0.9271722     1.3868072
C          -1.5025542     0.4404209     0.4723915
H          -2.4895977     0.8757524     0.5805672
C           1.0673663    -0.6221966     0.2260326
C           2.4613485    -1.2056890     0.1948851
C          -1.2274913    -0.5117941    -0.4679098
H          -2.0162836    -0.8538787    -1.1335318
C           5.8737366     1.3008419    -0.4864557
H           6.7475644     1.9221174    -0.6631365
C           4.5947362     1.8343631    -0.6547402
H           4.4708819     2.8671723    -0.9673038
C           0.0745163    -1.0771833    -0.5969709
H           0.2920277    -1.8500334    -1.3232981
C           3.4715833     1.0407909    -0.4236765
H           2.4806242     1.4598652    -0.5675324
C           3.6241427    -0.2978314    -0.0269013
C           4.9157476    -0.8287462     0.1315177
H           5.0141885    -1.8677414     0.4286664
C           6.0330126    -0.0326129    -0.0935001
H           7.0291319    -0.4466906     0.0346175
O           2.5930848    -2.4163393     0.2953772
O          -0.6200446     1.7665904     2.2697085
24
141_C12H9NO2_0-5-6-17 (-45,) energy =    -667.8986319
N           0.8439815     0.3985446     1.0259012
H           1.6209038     0.7852594     1.5515366
C          -0.4031271     1.0009428     1.3090134
C          -1.4969914     0.4234632     0.5447298
H          -2.4774105     0.8548731     0.7128151
C           1.0588705    -0.6264164     0.1399038
C           2.4467265    -1.1965269    -0.0003074
C          -1.2963662    -0.6051850    -0.3317887
H          -2.1389419    -1.0143749    -0.8838339
C           5.8994450     1.3302309    -0.3477808
H           6.7839017     1.9545517    -0.4408427
C           4.6360535     1.8727097    -0.5879270
H           4.5349463     2.9148747    -0.8767521
C          -0.0018250    -1.1625477    -0.5386403
H           0.1649686    -1.9929625    -1.2126097
C           3.4979511     1.0764744    -0.4603101
H           2.5215323     1.5039585    -0.6655648
C           3.6196577    -0.2757126    -0.0990110
C           4.8974407    -0.8165726     0.1237585
H           4.9754263    -1.8669779     0.3845792
C           6.0288466    -0.0166400     0.0076954
H           7.0128729    -0.4391504     0.1902133
O           2.5795838    -2.4100695    -0.0724476
O          -0.4734973     1.9121244     2.1261835
24
141_C12H9NO2_0-5-6-17 (-30,) energy =    -667.8996477
N           0.8730509     0.4643483     0.8774925
H           1.6808333     0.8999358     1.3095837
C          -0.3615509     1.0488389     1.2358475
C          -1.5028501     0.3845314     0.6255458
H          -2.4774942     0.7997787     0.8564580
C           1.0398424    -0.6264796     0.0612401
C           2.4201931    -1.1667637    -0.1960708
C          -1.3505322    -0.7046192    -0.1850769
H          -2.2262211    -1.1797795    -0.6203022
C           5.9154298     1.3306973    -0.2178628
H           6.8112152     1.9455699    -0.2282730
C           4.6796199     1.8948678    -0.5373879
H           4.6116418     2.9444448    -0.8085443
C          -0.0624871    -1.2384302    -0.4737622
H           0.0735111    -2.1100045    -1.1007429
C           3.5257356     1.1109921    -0.5130475
H           2.5733862     1.5557205    -0.7850713
C           3.6041712    -0.2514988    -0.1784051
C           4.8568580    -0.8150794     0.1167982
H           4.9067220    -1.8739215     0.3490057
C           6.0025246    -0.0265668     0.1084207
H           6.9653287    -0.4674490     0.3508484
O           2.5525444    -2.3616903    -0.4239566
O          -0.3890938     2.0158888     1.9890541
24
141_C12H9NO2_0-5-6-17 (-15,) energy =    -667.8994619
N           0.8803187     0.5369128     0.7301300
H           1.7010009     1.0264833     1.0696409
C          -0.3425221     1.0932797     1.1620864
C          -1.5019076     0.3385395     0.7108185
H          -2.4699138     0.7281849     1.0055356
C           1.0263213    -0.6086755    -0.0125993
C           2.3953524    -1.1047120    -0.3883729
C          -1.3717019    -0.8014036    -0.0307600
H          -2.2591915    -1.3446554    -0.3457722
C           5.9326225     1.3198282    -0.0937443
H           6.8388078     1.9150399    -0.0227439
C           4.7351061     1.9175488    -0.4885709
H           4.7081828     2.9739951    -0.7395134
C          -0.0912480    -1.2985700    -0.4038876
H           0.0314023    -2.2016105    -0.9873576
C           3.5667105     1.1585584    -0.5669686
H           2.6472323     1.6287934    -0.9032931
C           3.5928419    -0.2127871    -0.2613930
C           4.8098954    -0.8110294     0.1039417
H           4.8252451    -1.8767862     0.3079689
C           5.9683431    -0.0466113     0.2008509
H           6.9019496    -0.5148909     0.4995723
O           2.5229108    -2.2636385    -0.7605617
O          -0.3494905     2.1107503     1.8463324
24
141_C12H9NO2_0-5-6-17 (0,) energy =    -667.8980948
N           0.8635286     0.6217714     0.5801732
H           1.6787601     1.1736578     0.8228021
C          -0.3491673     1.1397189     1.0814316
C          -1.4939204     0.2871805     0.7974245
H          -2.4542316     0.6418507     1.1548492
C           1.0175401    -0.5717444    -0.0814713
C           2.3703187    -1.0135035    -0.5686053
C          -1.3573414    -0.8984594     0.1328493
H          -2.2323086    -1.5154745    -0.0561014
C           5.9504463     1.2955157     0.0227784
H           6.8665011     1.8605030     0.1710876
C           4.8000967     1.9392819    -0.4345270
H           4.8206229     3.0019000    -0.6585851
C          -0.0864805    -1.3476068    -0.3236017
H           0.0405633    -2.2789177    -0.8595929
C           3.6182242     1.2182639    -0.6118876
H           2.7399394     1.7239628    -1.0039279
C           3.5838254    -0.1603436    -0.3430818
C           4.7561738    -0.8054210     0.0817444
H           4.7305491    -1.8766013     0.2543874
C           5.9268310    -0.0786576     0.2782956
H           6.8245019    -0.5837645     0.6235739
O           2.4861130    -2.1226536    -1.0723591
O          -0.3611128     2.2055454     1.6876458
24
141_C12H9NO2_0-5-6-17 (15,) energy =    -667.8994618
N           0.7934614     0.6720718    -0.1069744
H           1.5475662     1.3001237    -0.3625482
C          -0.4698556     1.2949048    -0.0175088
C          -1.5428843     0.3627687     0.2937314
H          -2.5354992     0.7896741     0.3842389
C           1.0430193    -0.6692891     0.0464633
C           2.4407443    -1.2063191    -0.0936576
C          -1.3089641    -0.9740486     0.4508410
H          -2.1351265    -1.6435166     0.6772496
C           5.9336588     1.2982876    -0.0347868
H           6.8283305     1.9147075    -0.0264654
C           4.8602761     1.6164860     0.7981450
H           4.9213990     2.4707303     1.4662061
C           0.0013362    -1.5153130     0.3245197
H           0.2049660    -2.5715740     0.4420093
C           3.7043077     0.8349868     0.7794054
H           2.8873116     1.0755503     1.4534501
C           3.6204809    -0.2826400    -0.0682342
C           4.7188897    -0.6125882    -0.8789777
H           4.6553734    -1.4953066    -1.5070332
C           5.8616679     0.1809688    -0.8724601
H           6.7002949    -0.0730059    -1.5146082
O           2.5979153    -2.4069936    -0.2714289
O          -0.5755584     2.5032271    -0.1971442
24
141_C12H9NO2_0-5-6-17 (30,) energy =    -667.8996477
N           0.7413897     0.6712725    -0.2618366
H           1.4625412     1.2868774    -0.6222378
C          -0.5168500     1.2902172    -0.0944468
C          -1.5380606     0.3765251     0.3939266
H          -2.5228142     0.8015272     0.5530169
C           1.0261074    -0.6505022    -0.0251728
C           2.4087637    -1.1801252    -0.2922231
C          -1.2687053    -0.9420263     0.6294054
H          -2.0579056    -1.5975884     0.9891368
C           5.9304219     1.2513444     0.0847330
H           6.8331548     1.8493368     0.1747508
C           4.8042270     1.5703518     0.8446911
H           4.8308647     2.4079368     1.5356907
C           0.0299313    -1.4833203     0.4105767
H           0.2548662    -2.5287842     0.5769779
C           3.6398284     0.8116346     0.7221360
H           2.7776716     1.0560089     1.3350899
C           3.5992815    -0.2832086    -0.1577620
C           4.7468353    -0.6110604    -0.8991654
H           4.7101494    -1.4740226    -1.5560468
C           5.9001818     0.1580947    -0.7870957
H           6.7787510    -0.0944449    -1.3740122
O           2.5385894    -2.3535192    -0.6141334
O          -0.6571588     2.4801804    -0.3543975
24
141_C12H9NO2_0-5-6-17 (45,) energy =    -667.8986319
N           0.6812520     0.6717864    -0.4158111
H           1.3524651     1.2798881    -0.8731254
C          -0.5734564     1.2750027    -0.1705694
C          -1.5151342     0.3786265     0.4806003
H          -2.4923824     0.7918854     0.7037395
C           1.0290842    -0.6165072    -0.0984148
C           2.3946872    -1.1243849    -0.4828116
C          -1.1834789    -0.9102017     0.7897328
H          -1.9145751    -1.5530191     1.2739042
C           5.9404422     1.1961184     0.2027565
H           6.8487948     1.7678405     0.3722430
C           4.7709950     1.5274770     0.8887946
H           4.7685056     2.3494275     1.5988401
C           0.1046626    -1.4381366     0.4875888
H           0.3707815    -2.4642180     0.7064575
C           3.6007648     0.8016321     0.6665246
H           2.7011054     1.0567208     1.2176858
C           3.5974514    -0.2710152    -0.2407956
C           4.7843740    -0.6073509    -0.9138167
H           4.7698880    -1.4494414    -1.5980398
C           5.9456998     0.1264607    -0.6988395
H           6.8574192    -0.1337124    -1.2291290
O           2.4933508    -2.2502557    -0.9501472
O          -0.7700885     2.4390315    -0.5012378
24
141_C12H9NO2_0-5-6-17 (60,) energy =    -667.8966946
N           0.5856456     0.6625133    -0.5663198
H           1.1852166     1.2590399    -1.1270881
C          -0.6703559     1.2365717    -0.2558148
C          -1.5053268     0.3645581     0.5526986
H          -2.4771227     0.7562859     0.8313295
C           1.0206596    -0.5765677    -0.1744741
C           2.3702196    -1.0510397    -0.6626102
C          -1.0852226    -0.8773433     0.9370272
H          -1.7385605    -1.5033656     1.5399506
C           5.9415330     1.1108927     0.3188765
H           6.8558233     1.6447826     0.5634587
C           4.7422519     1.4619983     0.9411949
H           4.7219029     2.2638444     1.6735519
C           0.1943257    -1.3803691     0.5611467
H           0.5223036    -2.3733341     0.8415202
C           3.5666199     0.7817935     0.6252018
H           2.6402356     1.0533448     1.1215970
C           3.5871708    -0.2613071    -0.3150715
C           4.8007963    -0.6136284    -0.9300550
H           4.7994292    -1.4287565    -1.6463447
C           5.9694801     0.0712153    -0.6171492
H           6.9041047    -0.2021755    -1.0986618
O           2.4337830    -2.1024462    -1.2819656
O          -0.9473980     2.3591027    -0.6631423
24
141_C12H9NO2_0-5-6-17 (75,) energy =    -667.8946574
N           0.4742430     0.6288708    -0.7197886
H           0.9829797     1.1918923    -1.3936175
C          -0.7885387     1.1639801    -0.3633810
C          -1.4992016     0.3393997     0.5976408
H          -2.4700633     0.7028457     0.9149641
C           1.0142544    -0.5358766    -0.2448950
C           2.3540277    -0.9673866    -0.8109237
C          -0.9697629    -0.8275379     1.0709875
H          -1.5321007    -1.4201434     1.7886511
C           5.9410180     1.0177338     0.4326205
H           6.8583582     1.5111156     0.7422695
C           4.7268761     1.3713028     1.0245100
H           4.6977361     2.1362289     1.7950540
C           0.3079980    -1.2960463     0.6445126
H           0.7197013    -2.2299598     1.0067212
C           3.5485324     0.7406231     0.6276249
H           2.6076603     1.0132712     1.0957141
C           3.5811480    -0.2509930    -0.3658338
C           4.8078652    -0.6028497    -0.9545397
H           4.8126431    -1.3743659    -1.7176597
C           5.9804842     0.0292140    -0.5571746
H           6.9268213    -0.2443745    -1.0151071
O           2.3885533    -1.9112806    -1.5846029
O          -1.1648704     2.2201327    -0.8588325
24
141_C12H9NO2_0-5-6-17 (90,) energy =    -667.8937838
N           0.3612542     0.5932248    -0.8604700
H           0.7719912     1.0772144    -1.6522326
C          -0.9111177     1.0894329    -0.4811028
C          -1.4958520     0.3559170     0.6271951
H          -2.4698088     0.6921488     0.9643886
C           1.0086011    -0.4674938    -0.2897859
C           2.3403874    -0.8614346    -0.9072824
C          -0.8521450    -0.7009985     1.2051127
H          -1.3217924    -1.2292663     2.0315020
C           5.9616504     0.9141022     0.5307969
H           6.8870915     1.3597190     0.8855389
C           4.7497541     1.2527506     1.1359774
H           4.7303884     1.9596187     1.9604036
C           0.4292098    -1.1356020     0.7519601
H           0.9351854    -1.9766766     1.2104285
C           3.5613536     0.6820048     0.6827043
H           2.6204182     0.9413116     1.1580397
C           3.5815068    -0.2312630    -0.3832209
C           4.8056809    -0.5674496    -0.9867111
H           4.7999787    -1.2754359    -1.8091279
C           5.9885884     0.0026337    -0.5309240
H           6.9332291    -0.2588424    -0.9992955
O           2.3453661    -1.6655009    -1.8261280
O          -1.3939775     2.0450531    -1.0776112
24
141_C12H9NO2_0-5-6-17 (105,) energy =    -667.8949673
N           0.1672674     0.6759928    -1.0842671
H           0.4967654     1.0807566    -1.9547193
C          -1.1195781     1.1151397    -0.6892534
C          -1.5999766     0.4516542     0.5109952
H          -2.5822477     0.7479459     0.8613629
C           0.9104436    -0.2854529    -0.4582394
C           2.2392978    -0.6187747    -1.1091066
C          -0.8570114    -0.4987995     1.1505540
H          -1.2508451    -0.9796257     2.0428535
C           5.9043199     0.8104411     0.5858843
H           6.8415040     1.1717541     1.0006620
C           4.6966620     1.1367715     1.2054868
H           4.6919702     1.7524913     2.1002905
C           0.4347950    -0.8793571     0.6777547
H           1.0256769    -1.6284477     1.1911814
C           3.4930093     0.6730203     0.6759327
H           2.5551920     0.9259970     1.1597484
C           3.4932059    -0.1185032    -0.4835096
C           4.7137816    -0.4410544    -1.1023894
H           4.6928718    -1.0513781    -1.9993094
C           5.9115266     0.0200385    -0.5691110
H           6.8525801    -0.2323618    -1.0495389
O           2.2316385    -1.2178105    -2.1749285
O          -1.7009251     1.9718705    -1.3447338
24
141_C12H9NO2_0-5-6-17 (120,) energy =    -667.8977201
N           0.1199144     0.4608904    -1.0772306
H           0.3696217     0.7580849    -2.0153470
C          -1.1941556     0.7949166    -0.6780667
C          -1.5491703     0.2424862     0.6202685
H          -2.5482861     0.4653450     0.9775149
C           0.9950690    -0.3191047    -0.3743582
C           2.3200734    -0.5725436    -1.0548812
C          -0.6771907    -0.5261342     1.3361296
H          -0.9803611    -0.9320969     2.2982386
C           6.0272506     0.6775527     0.6963271
H           6.9756903     0.9950308     1.1212681
C           4.8299977     1.0391186     1.3159511
H           4.8441587     1.6414291     2.2197900
C           0.6350961    -0.8092969     0.8517831
H           1.3293039    -1.4135075     1.4231672
C           3.6112747     0.6308885     0.7745973
H           2.6827581     0.9196056     1.2552206
C           3.5850259    -0.1393261    -0.3991579
C           4.7961376    -0.4930595    -1.0204074
H           4.7570223    -1.0817339    -1.9310024
C           6.0085735    -0.0899440    -0.4737107
H           6.9409726    -0.3694415    -0.9560202
O           2.3048681    -1.0400615    -2.1867309
O          -1.9023126     1.4831257    -1.4033698
24
141_C12H9NO2_0-5-6-17 (135,) energy =    -667.9008708
N           0.0193419     0.4186425    -1.1323407
H           0.2290587     0.6566998    -2.0973279
C          -1.3133056     0.6374444    -0.7263478
C          -1.5822904     0.1491797     0.6196721
H          -2.5931576     0.2906460     0.9854827
C           0.9888877    -0.2052506    -0.3979506
C           2.3073464    -0.3676659    -1.1060752
C          -0.6208407    -0.4685271     1.3658071
H          -0.8615640    -0.8346436     2.3608852
C           6.0611631     0.5415223     0.7570316
H           7.0218804     0.7731697     1.2089237
C           4.8829050     0.9827604     1.3608728
H           4.9240322     1.5646055     2.2772680
C           0.7051363    -0.6447061     0.8683679
H           1.4671955    -1.1376071     1.4588830
C           3.6474383     0.6826915     0.7872156
H           2.7359354     1.0408730     1.2529332
C           3.5849357    -0.0565561    -0.4051092
C           4.7784646    -0.4835890    -1.0138855
H           4.7143866    -1.0408572    -1.9426574
C           6.0071302    -0.1927955    -0.4327106
H           6.9245193    -0.5331819    -0.9045900
O           2.2864954    -0.6717740    -2.2940592
O          -2.1106176     1.1857959    -1.4776277
24
141_C12H9NO2_0-5-6-17 (150,) energy =    -667.9033624
N          -0.0521253     0.3701415    -1.1703071
H           0.1408028     0.5744198    -2.1471898
C          -1.3975428     0.4621008    -0.7677364
C          -1.6057521     0.0303368     0.6098104
H          -2.6252246     0.0801953     0.9758483
C           0.9869162    -0.0849875    -0.4075762
C           2.3011727    -0.1475003    -1.1319913
C          -0.5795448    -0.4298308     1.3825434
H          -0.7742643    -0.7615654     2.3994618
C           6.0865632     0.4098704     0.8071651
H           7.0557403     0.5531451     1.2772227
C           4.9394789     0.9402873     1.3991221
H           5.0140169     1.5064684     2.3232296
C           0.7560488    -0.4871560     0.8829206
H           1.5658577    -0.8679317     1.4911829
C           3.6927436     0.7518836     0.8025720
H           2.8086395     1.1857861     1.2567653
C           3.5872465     0.0364049    -0.4012539
C           4.7514229    -0.4737939    -1.0015477
H           4.6589968    -1.0049677    -1.9432259
C           5.9904082    -0.2977207    -0.3956129
H           6.8835709    -0.7058421    -0.8601600
O           2.2784367    -0.3033816    -2.3493993
O          -2.2575752     0.8670835    -1.5404071
24
141_C12H9NO2_0-5-6-17 (165,) energy =    -667.9044263
N          -0.0946489     0.3233381    -1.2028093
H           0.0964432     0.5154633    -2.1831738
C          -1.4439164     0.2887885    -0.8120409
C          -1.6170858    -0.0849751     0.5881614
H          -2.6394109    -0.1297021     0.9469870
C           0.9834351     0.0464305    -0.4091468
C           2.2953479     0.0876016    -1.1364355
C          -0.5536735    -0.3797065     1.3902612
H          -0.7196007    -0.6727085     2.4239929
C           6.1004474     0.2738157     0.8362894
H           7.0744061     0.3219687     1.3156411
C           5.0014749     0.9012111     1.4249892
H           5.1200589     1.4499481     2.3550159
C           0.7847881    -0.3162844     0.8991862
H           1.6220724    -0.5795774     1.5306140
C           3.7477324     0.8330251     0.8173145
H           2.9031699     1.3453226     1.2659439
C           3.5877974     0.1421887    -0.3947082
C           4.7061294    -0.4597814    -0.9952857
H           4.5767486    -0.9658492    -1.9464913
C           5.9507388    -0.4063878    -0.3762603
H           6.8069738    -0.8879187    -0.8400533
O           2.2730529     0.0652678    -2.3639943
O          -2.3382657     0.5488983    -1.6076399
24
141_C12H9NO2_0-5-6-17 (180,) energy =    -667.9035879
N           0.2117756    -0.3518622     1.7340959
H           0.6066027    -0.5855567     2.6422636
C          -1.1860895    -0.3954403     1.6094086
C          -1.6427827    -0.0798661     0.2592041
H          -2.7153471    -0.0995805     0.1005837
C           1.1040527    -0.0423632     0.7452017
C           2.5361649    -0.1580880     1.1800177
C          -0.7664432     0.2067108    -0.7461098
H          -1.1387943     0.4213639    -1.7447157
C           5.8823291     0.6452039    -1.3845475
H           6.7426833     0.8390418    -2.0192212
C           4.7788844     1.4991573    -1.4244167
H           4.7841382     2.3671203    -2.0776830
C           0.6423637     0.2246827    -0.5194410
H           1.3300996     0.4128617    -1.3313593
C           3.6685937     1.2465045    -0.6188211
H           2.8273901     1.9320759    -0.6313944
C           3.6594182     0.1382358     0.2431300
C           4.7883787    -0.6946487     0.3030888
H           4.7859616    -1.5293562     0.9966105
C           5.8855751    -0.4515341    -0.5178812
H           6.7476078    -1.1113591    -0.4771703
O           2.7604676    -0.5849387     2.3093299
O          -1.8976998    -0.6808487     2.5648562
