18
313_C8H9F_0-4-13-11 (-165,) energy =    -410.1101029
C           2.3812088    -2.0173096    -1.3635164
H           2.6235322    -2.7205442    -0.5602646
H           3.1362519    -2.1068645    -2.1510850
H           1.4120380    -2.2946688    -1.7882856
C           2.3048011    -0.5943801    -0.8348745
F           1.1978439    -0.5113344     0.0298522
H           2.0792409     0.0875178    -1.6674007
C           5.7459142     1.0033953     1.2480519
H           6.6037601     1.4214364     1.7679768
C           4.4951363     1.6189165     1.3464051
H           4.3758495     2.5175707     1.9459924
C           3.3972564     1.0823881     0.6781694
H           2.4227876     1.5536193     0.7646862
C           3.5267559    -0.0803441    -0.0953240
C           4.7822321    -0.6896067    -0.1879410
H           4.9106113    -1.5899087    -0.7810087
C           5.8858335    -0.1507875     0.4791026
H           6.8535914    -0.6387289     0.3977584
18
313_C8H9F_0-4-13-11 (-150,) energy =    -410.1107102
C           2.3259608    -2.0343813    -1.2141945
H           2.4349979    -2.6273868    -0.3005994
H           3.1314411    -2.3022399    -1.9047179
H           1.3737164    -2.2906859    -1.6880639
C           2.3420698    -0.5468923    -0.8939438
F           1.1808422    -0.2550633    -0.1584424
H           2.2519736     0.0260431    -1.8283291
C           5.7665734     1.0029323     1.2547683
H           6.6235477     1.4071006     1.7869517
C           4.5007819     1.5671549     1.4255900
H           4.3675760     2.4135795     2.0943476
C           3.4023743     1.0488509     0.7412732
H           2.4177870     1.4819481     0.8811941
C           3.5488981    -0.0480164    -0.1185086
C           4.8219258    -0.6063828    -0.2866184
H           4.9660753    -1.4534223    -0.9508450
C           5.9229509    -0.0846464     0.3956442
H           6.9030183    -0.5331369     0.2555836
18
313_C8H9F_0-4-13-11 (-135,) energy =    -410.1113349
C           2.2554428    -2.0579316    -1.0795260
H           2.2223377    -2.5152089    -0.0856155
H           3.1095062    -2.4714104    -1.6242112
H           1.3423912    -2.3237212    -1.6211089
C           2.3557959    -0.5423867    -0.9611813
F           1.1713592    -0.0843113    -0.3660160
H           2.3793073    -0.0972174    -1.9664525
C           5.7486573     0.9756320     1.2583711
H           6.6001150     1.3655932     1.8096031
C           4.4679209     1.4760472     1.4946722
H           4.3164458     2.2598259     2.2324010
C           3.3743793     0.9761973     0.7863256
H           2.3792646     1.3642244     0.9711894
C           3.5450264    -0.0391398    -0.1617318
C           4.8352933    -0.5313476    -0.3999546
H           4.9964674    -1.3089634    -1.1419824
C           5.9286911    -0.0288822     0.3059164
H           6.9220496    -0.4245553     0.1109537
18
313_C8H9F_0-4-13-11 (-120,) energy =    -410.1119716
C           2.1985365    -2.0434105    -0.9641432
H           2.0379319    -2.3478774     0.0749599
H           3.0769453    -2.5719357    -1.3472640
H           1.3278876    -2.3390156    -1.5581277
C           2.3928382    -0.5331774    -1.0417195
F           1.2087350     0.0707274    -0.6006990
H           2.5198303    -0.2303764    -2.0907888
C           5.7405544     0.9449140     1.2649927
H           6.5834083     1.3167616     1.8414040
C           4.4465344     1.3824458     1.5469705
H           4.2767227     2.0997528     2.3457882
C           3.3629939     0.9064341     0.8057563
H           2.3572174     1.2490620     1.0203453
C           3.5624149    -0.0193820    -0.2227131
C           4.8656448    -0.4485299    -0.5081145
H           5.0419967    -1.1550360    -1.3163462
C           5.9470768     0.0281696     0.2316112
H           6.9518583    -0.3147836    -0.0009613
18
313_C8H9F_0-4-13-11 (-105,) energy =    -410.1123529
C           2.1387056    -2.0149602    -0.8498819
H           1.8995332    -2.1672879     0.2075108
H           3.0037554    -2.6373336    -1.1007808
H           1.2859780    -2.3376653    -1.4560542
C           2.4404080    -0.5426009    -1.1097446
F           1.2782668     0.1865824    -0.8283602
H           2.6545350    -0.3900231    -2.1764719
C           5.7328147     0.9236056     1.2744802
H           6.5623560     1.2862209     1.8755519
C           4.4232727     1.2850630     1.5925315
H           4.2292509     1.9327983     2.4435664
C           3.3563245     0.8221855     0.8200086
H           2.3381619     1.1092147     1.0587443
C           3.5904285    -0.0095644    -0.2789679
C           4.9073361    -0.3625832    -0.5993258
H           5.1033201    -0.9969316    -1.4617894
C           5.9726347     0.0980553     0.1735522
H           6.9897961    -0.1822753    -0.0873391
18
313_C8H9F_0-4-13-11 (-90,) energy =    -410.1123486
C           2.0620389    -1.9694916    -0.7492932
H           1.7482398    -1.9663307     0.2996272
H           2.8884368    -2.6795297    -0.8591495
H           1.2237180    -2.3057829    -1.3682631
C           2.4980497    -0.5695775    -1.1692520
F           1.3823658     0.2724514    -1.0560047
H           2.7884170    -0.5703038    -2.2282974
C           5.7301310     0.9109736     1.2812102
H           6.5432473     1.2741966     1.9039707
C           4.4050389     1.1810387     1.6290015
H           4.1840547     1.7574795     2.5235902
C           3.3598115     0.7174399     0.8298465
H           2.3291977     0.9372332     1.0892624
C           3.6300711    -0.0191589    -0.3286243
C           4.9598901    -0.2797153    -0.6769015
H           5.1803266    -0.8409374    -1.5830278
C           6.0058219     0.1788968     0.1248666
H           7.0345334    -0.0279111    -0.1583390
18
313_C8H9F_0-4-13-11 (-75,) energy =    -410.1119099
C           1.9713306    -1.9247107    -0.6583670
H           1.5913545    -1.7653056     0.3559240
H           2.7362668    -2.7075171    -0.6198594
H           1.1474357    -2.2676639    -1.2927965
C           2.5550001    -0.6299320    -1.2122862
F           1.5054272     0.3012455    -1.2867336
H           2.9158726    -0.7868943    -2.2370037
C           5.7224037     0.9188118     1.2780495
H           6.5183755     1.2986464     1.9129854
C           4.3868585     1.0757693     1.6583079
H           4.1419074     1.5808577     2.5890198
C           3.3649102     0.5885044     0.8454332
H           2.3258416     0.7239575     1.1314610
C           3.6655210    -0.0554191    -0.3615420
C           5.0034181    -0.2012848    -0.7398907
H           5.2459285    -0.6918118    -1.6804663
C           6.0292467     0.2789603     0.0768490
H           7.0650865     0.1603475    -0.2299674
18
313_C8H9F_0-4-13-11 (-60,) energy =    -410.1109513
C           1.8632414    -1.8518507    -0.6022212
H           1.4040552    -1.5376226     0.3401851
H           2.5387287    -2.6883896    -0.3933850
H           1.0721201    -2.1979967    -1.2751304
C           2.6204755    -0.6959719    -1.2428423
F           1.6752549     0.3062609    -1.5340523
H           3.0511342    -1.0128552    -2.2010944
C           5.7283040     0.9443996     1.2685011
H           6.5098027     1.3507204     1.9050325
C           4.3951512     0.9793422     1.6872805
H           4.1380830     1.4155196     2.6489977
C           3.3922139     0.4556155     0.8741612
H           2.3558559     0.4974580     1.1981165
C           3.7058731    -0.1026430    -0.3726215
C           5.0412608    -0.1270655    -0.7855810
H           5.2945925    -0.5539646    -1.7536525
C           6.0503592     0.3900223     0.0299556
H           7.0838100     0.3635686    -0.3052217
18
313_C8H9F_0-4-13-11 (-45,) energy =    -410.1098058
C           1.7636373    -1.7372685    -0.6096580
H           1.2066992    -1.2650135     0.2049704
H           2.3174450    -2.5900327    -0.2026209
H           1.0417793    -2.1063079    -1.3449287
C           2.7080521    -0.7450346    -1.2720594
F           1.9143877     0.2966124    -1.7945771
H           3.2026824    -1.2181393    -2.1296710
C           5.7505619     0.9813052     1.2706802
H           6.5181518     1.4152262     1.9059326
C           4.4327480     0.8909519     1.7256536
H           4.1725021     1.2564888     2.7155145
C           3.4476461     0.3305994     0.9138838
H           2.4258037     0.2727612     1.2777710
C           3.7621848    -0.1426745    -0.3671854
C           5.0851822    -0.0448432    -0.8125440
H           5.3421945    -0.4089703    -1.8049052
C           6.0758581     0.5118389    -0.0019531
H           7.0982161     0.5781334    -0.3644585
18
313_C8H9F_0-4-13-11 (-30,) energy =    -410.1090806
C           1.6512414    -1.6663938    -0.5709925
H           1.0536620    -1.0416389     0.0995585
H           2.0788434    -2.4925027     0.0070828
H           0.9804583    -2.0806307    -1.3297350
C           2.7426696    -0.8531776    -1.2479137
F           2.1107299     0.1699965    -1.9844614
H           3.2629021    -1.4792108    -1.9841964
C           5.7387133     1.0174113     1.2506504
H           6.4960769     1.4935135     1.8676957
C           4.4591969     0.7940124     1.7616247
H           4.2165386     1.0965356     2.7769096
C           3.4856056     0.1807720     0.9720938
H           2.4954782     0.0158727     1.3861171
C           3.7764197    -0.2204802    -0.3375298
C           5.0647713     0.0088584    -0.8376764
H           5.3028261    -0.2979765    -1.8538535
C           6.0407754     0.6235242    -0.0541730
H           7.0349340     0.7916245    -0.4596673
18
313_C8H9F_0-4-13-11 (-15,) energy =    -410.1090069
C           1.5904806    -1.5584588    -0.5902243
H           1.0022881    -0.8044990    -0.0578662
H           1.8823041    -2.3425074     0.1164713
H           0.9518748    -2.0035235    -1.3589041
C           2.8105649    -0.9354698    -1.2466236
F           2.3575205     0.0239397    -2.1740240
H           3.3333388    -1.6984342    -1.8389293
C           5.7369277     1.0433305     1.2508329
H           6.4793818     1.5472921     1.8638380
C           4.4941253     0.7104023     1.7888621
H           4.2633946     0.9555288     2.8222398
C           3.5387405     0.0623805     1.0023543
H           2.5765943    -0.1886494     1.4381646
C           3.8165938    -0.2688504    -0.3278505
C           5.0691544     0.0723854    -0.8574565
H           5.2921769    -0.1727703    -1.8933982
C           6.0232084     0.7235294    -0.0788282
H           6.9892504     0.9789503    -0.5061808
18
313_C8H9F_0-4-13-11 (0,) energy =    -410.1094385
C           1.5407439    -1.4706077    -0.6046582
H           0.9990793    -0.6146253    -0.1896157
H           1.7083881    -2.2033441     0.1915992
H           0.9131734    -1.9330848    -1.3719779
C           2.8535523    -1.0323685    -1.2297548
F           2.5558939    -0.1876492    -2.3169856
H           3.3553829    -1.9073264    -1.6659614
C           5.7245343     1.0631817     1.2377512
H           6.4557487     1.5912263     1.8439849
C           4.5244112     0.6353809     1.8029392
H           4.3138040     0.8307401     2.8511253
C           3.5830239    -0.0433055     1.0239263
H           2.6531946    -0.3674365     1.4810400
C           3.8353334    -0.3112276    -0.3247545
C           5.0439479     0.1290181    -0.8843458
H           5.2403496    -0.0584053    -1.9369200
C           5.9819895     0.8095999    -0.1126122
H           6.9137510     1.1428117    -0.5620546
18
313_C8H9F_0-4-13-11 (15,) energy =    -410.1100546
C           1.5017909    -1.3799423    -0.6240863
H           1.0193205    -0.4423126    -0.3299777
H           1.5485381    -2.0416057     0.2468288
H           0.8848975    -1.8639350    -1.3868419
C           2.8871179    -1.1223698    -1.1932573
F           2.7355449    -0.4210673    -2.4041247
H           3.3482984    -2.0824629    -1.4661138
C           5.7101033     1.0859480     1.2333968
H           6.4303757     1.6382652     1.8310223
C           4.5599831     0.5654835     1.8243654
H           4.3769800     0.7128727     2.8855025
C           3.6323700    -0.1425222     1.0552425
H           2.7407146    -0.5365558     1.5331740
C           3.8484370    -0.3460503    -0.3114353
C           5.0056938     0.1868529    -0.8978603
H           5.1689250     0.0530340    -1.9630950
C           5.9292687     0.8957647    -0.1336760
H           6.8198141     1.3035930    -0.6047332
18
313_C8H9F_0-4-13-11 (30,) energy =    -410.1106224
C           1.4808935    -1.2728301    -0.6705389
H           1.0659780    -0.2687963    -0.5363444
H           1.4062279    -1.8135949     0.2778615
H           0.8788799    -1.8054256    -1.4127483
C           2.9216918    -1.1999518    -1.1538849
F           2.9110739    -0.6642495    -2.4529751
H           3.3199952    -2.2198143    -1.2585553
C           5.7002899     1.1069949     1.2359277
H           6.4077546     1.6813959     1.8279944
C           4.6083493     0.4916761     1.8475282
H           4.4587634     0.5861875     2.9199016
C           3.6970584    -0.2430193     1.0858121
H           2.8522017    -0.7118938     1.5814153
C           3.8696117    -0.3788754    -0.2968868
C           4.9679472     0.2456461    -0.9034800
H           5.0982561     0.1605608    -1.9770414
C           5.8753079     0.9822812    -0.1438781
H           6.7192995     1.4631803    -0.6315365
18
313_C8H9F_0-4-13-11 (45,) energy =    -410.1112416
C           1.4694295    -1.1459840    -0.7195567
H           1.1423447    -0.1036110    -0.7865031
H           1.2904247    -1.5025366     0.2991335
H           0.8660385    -1.7501376    -1.4040322
C           2.9401677    -1.2644640    -1.0978138
F           3.0600097    -0.9076809    -2.4487813
H           3.2493943    -2.3182013    -1.0368954
C           5.6863776     1.1346913     1.2378990
H           6.3804811     1.7339081     1.8210524
C           4.6709518     0.4184939     1.8735386
H           4.5694096     0.4577036     2.9549719
C           3.7773589    -0.3476736     1.1243850
H           2.9955100    -0.9001600     1.6384876
C           3.8886556    -0.4132323    -0.2709011
C           4.9104558     0.3069999    -0.9007846
H           4.9972171     0.2667081    -1.9805521
C           5.8017949     1.0756483    -0.1513696
H           6.5875336     1.6311952    -0.6567909
18
313_C8H9F_0-4-13-11 (60,) energy =    -410.1119516
C           1.4747118    -1.0267689    -0.7888750
H           1.2668276     0.0166787    -1.0462518
H           1.2081612    -1.1835885     0.2608477
H           0.8472718    -1.6757933    -1.4079882
C           2.9464930    -1.3418725    -1.0318366
F           3.1933195    -1.1904755    -2.4020082
H           3.1401622    -2.3989958    -0.8003049
C           5.6541110     1.1602874     1.2316236
H           6.3320442     1.7896030     1.8019398
C           4.7296645     0.3468389     1.8908848
H           4.6854513     0.3396587     2.9768488
C           3.8596618    -0.4599029     1.1585534
H           3.1492233    -1.0937596     1.6847234
C           3.9027745    -0.4672109    -0.2421969
C           4.8316862     0.3478885    -0.8960932
H           4.8683380     0.3427658    -1.9794102
C           5.7019428     1.1567252    -0.1623374
H           6.4190198     1.7851155    -0.6842945
18
313_C8H9F_0-4-13-11 (75,) energy =    -410.1123685
C           1.5060854    -0.9244754    -0.8905824
H           1.4270010     0.0922964    -1.2886044
H           1.1506012    -0.9179862     0.1449014
H           0.8625197    -1.5864295    -1.4791406
C           2.9532283    -1.4013269    -0.9602193
F           3.3223072    -1.4457868    -2.3105189
H           3.0237825    -2.4304964    -0.5822425
C           5.6338021     1.1777509     1.2381792
H           6.3012655     1.8309132     1.7938653
C           4.8062484     0.2794807     1.9158854
H           4.8286232     0.2291418     3.0013443
C           3.9538379    -0.5611435     1.2008005
H           3.3188153    -1.2650288     1.7355821
C           3.9149367    -0.5120743    -0.1982088
C           4.7473240     0.3868243    -0.8718229
H           4.7272369     0.4161066    -1.9557456
C           5.6026340     1.2265391    -0.1559293
H           6.2478548     1.9186979    -0.6907952
18
313_C8H9F_0-4-13-11 (90,) energy =    -410.1123239
C           1.5327849    -0.8530757    -1.0095573
H           1.5773540     0.1130503    -1.5227096
H           1.0903193    -0.6970374    -0.0200345
H           0.8875976    -1.5278204    -1.5817700
C           2.9328403    -1.4446999    -0.8842966
F           3.4112503    -1.6744589    -2.1827954
H           2.8832593    -2.4222281    -0.3866942
C           5.6288697     1.1791485     1.2345106
H           6.3006608     1.8456674     1.7687169
C           4.8946141     0.2179386     1.9314756
H           4.9948077     0.1304241     3.0101240
C           4.0388580    -0.6423220     1.2422294
H           3.4772495    -1.3976795     1.7886911
C           3.8996956    -0.5440527    -0.1463402
C           4.6427607     0.4172801    -0.8404759
H           4.5541832     0.4776822    -1.9205218
C           5.5028115     1.2736521    -0.1530239
H           6.0791282     2.0133971    -0.7026020
18
313_C8H9F_0-4-13-11 (105,) energy =    -410.1118574
C           1.5599557    -0.8009988    -1.1299142
H           1.7171633     0.0926551    -1.7425555
H           1.0461091    -0.5010134    -0.2103858
H           0.9185786    -1.4964108    -1.6812141
C           2.8951149    -1.4619873    -0.8073876
F           3.4638312    -1.8692547    -2.0262390
H           2.7321391    -2.3699099    -0.2125488
C           5.6399937     1.1745536     1.2307131
H           6.3271963     1.8432307     1.7421913
C           4.9904728     0.1625174     1.9379436
H           5.1725016     0.0358620     3.0018755
C           4.1144175    -0.7000549     1.2757183
H           3.6194312    -1.4959340     1.8285218
C           3.8663254    -0.5498695    -0.0918565
C           4.5305754     0.4612614    -0.7978561
H           4.3674257     0.5597950    -1.8672189
C           5.4111667     1.3184332    -0.1404032
H           5.9241531     2.0972903    -0.6985405
18
313_C8H9F_0-4-13-11 (120,) energy =    -410.1109872
C           1.5953455    -0.7815272    -1.2498732
H           1.8544446     0.0196000    -1.9491959
H           1.0218032    -0.3451850    -0.4249807
H           0.9636635    -1.5072093    -1.7722216
C           2.8516828    -1.4661579    -0.7274793
F           3.4940110    -2.0540003    -1.8335310
H           2.5796045    -2.2836352    -0.0478949
C           5.6672692     1.1613333     1.2284056
H           6.3775733     1.8221960     1.7180643
C           5.0883962     0.1076459     1.9353051
H           5.3485045    -0.0601086     2.9770587
C           4.1805245    -0.7424288     1.2998640
H           3.7390608    -1.5699701     1.8511203
C           3.8268048    -0.5386228    -0.0371927
C           4.4255691     0.5131636    -0.7440219
H           4.1866067     0.6594024    -1.7938925
C           5.3372426     1.3588114    -0.1154504
H           5.7953232     2.1706808    -0.6742367
18
313_C8H9F_0-4-13-11 (135,) energy =    -410.1099463
C           2.4052513    -1.6894042    -1.6888764
H           3.0888732    -2.5160919    -1.4736268
H           2.8112495    -1.1139452    -2.5277531
H           1.4417797    -2.1138193    -1.9880379
C           2.2197867    -0.8037092    -0.4654028
F           1.6651493    -1.6088071     0.5497433
H           1.4810606    -0.0214546    -0.6806953
C           5.7709491     1.0484508     1.1621558
H           6.6588982     1.5144732     1.5810068
C           4.6133746     1.7998341     0.9594592
H           4.5928840     2.8539527     1.2229084
C           3.4756071     1.1946597     0.4227788
H           2.5721671     1.7816812     0.2721711
C           3.4814665    -0.1585714     0.0674532
C           4.6452244    -0.9073829     0.2895688
H           4.6638269    -1.9659886     0.0463973
C           5.7823852    -0.3083953     0.8290108
H           6.6783541    -0.9012451     0.9931220
18
313_C8H9F_0-4-13-11 (150,) energy =    -410.1091543
C           2.4122401    -1.7910941    -1.6468651
H           2.9672816    -2.6530393    -1.2647848
H           2.9522880    -1.3797483    -2.5063095
H           1.4337583    -2.1453626    -1.9850572
C           2.2260505    -0.7373597    -0.5669580
F           1.5054863    -1.3380737     0.4860515
H           1.5897955     0.0715068    -0.9483962
C           5.7568299     1.0402248     1.1907944
H           6.6349607     1.4915380     1.6449660
C           4.5772100     1.7749612     1.0609797
H           4.5310264     2.8013442     1.4151042
C           3.4551125     1.1903576     0.4742701
H           2.5365924     1.7649300     0.3761162
C           3.4907228    -0.1288762     0.0049573
C           4.6774079    -0.8585584     0.1488149
H           4.7304527    -1.8863846    -0.1974117
C           5.8032562    -0.2780004     0.7336883
H           6.7176104    -0.8569005     0.8335925
18
313_C8H9F_0-4-13-11 (165,) energy =    -410.1089797
C           2.4103445    -1.8837425    -1.5592561
H           2.8366928    -2.7313101    -1.0136421
H           3.0610816    -1.6465146    -2.4075079
H           1.4330862    -2.1890167    -1.9446953
C           2.2399351    -0.6799008    -0.6486564
F           1.3632747    -1.0502297     0.3919199
H           1.7282861     0.1217254    -1.1976650
C           5.7522671     1.0310703     1.2105773
H           6.6246377     1.4714362     1.6860787
C           4.5470678     1.7360828     1.1635685
H           4.4769645     2.7274567     1.6032528
C           3.4338752     1.1689875     0.5469452
H           2.4957859     1.7184552     0.5124807
C           3.4997225    -0.1080534    -0.0277938
C           4.7108307    -0.8058661     0.0280655
H           4.7913760    -1.7957346    -0.4105391
C           5.8310478    -0.2394169     0.6405885
H           6.7654049    -0.7936439     0.6716003
18
313_C8H9F_0-4-13-11 (180,) energy =    -410.1094186
C           2.4050417    -1.9630075    -1.4596442
H           2.7329405    -2.7505462    -0.7734840
H           3.1207766    -1.8923088    -2.2851947
H           1.4326111    -2.2500878    -1.8700561
C           2.2701119    -0.6345907    -0.7362295
F           1.2590394    -0.7695774     0.2360883
H           1.9001896     0.1231819    -1.4407336
C           5.7549436     1.0213206     1.2226115
H           6.6219793     1.4537552     1.7148408
C           4.5246181     1.6838653     1.2568002
H           4.4306770     2.6331131     1.7776672
C           3.4172476     1.1295197     0.6201423
H           2.4588542     1.6414522     0.6532173
C           3.5143470    -0.0959428    -0.0553730
C           4.7490685    -0.7511974    -0.0823918
H           4.8529795    -1.6993213    -0.6008909
C           5.8639624    -0.1954851     0.5514580
H           6.8165962    -0.7176750     0.5195663
