20
219_C7H9NO2S_0-4-5-15 (-165,) energy =    -875.4825386
C           0.8325018    -1.8904755     0.5906225
H           0.3041388    -2.1469924     1.5116579
H           0.6079944    -2.6090219    -0.1981535
H           0.5726659    -0.8748010     0.2851177
S           2.5912308    -1.9721096     0.9745443
N           3.2251094    -1.5139928    -0.5677273
H           3.0176951    -0.5211851    -0.6820517
O           2.8748228    -0.9407084     1.9792267
O           2.9718062    -3.3646056     1.2072451
C           7.3066087    -2.2314012    -1.4246955
H           8.3504740    -2.4151548    -1.6624386
C           6.8453885    -0.9248973    -1.2599733
H           7.5266908    -0.0851021    -1.3648934
C           5.5080875    -0.6887166    -0.9425976
H           5.1536811     0.3285664    -0.7918480
C           4.6183736    -1.7614718    -0.8158943
C           5.0745712    -3.0732520    -0.9928970
H           4.3783096    -3.8974952    -0.8957846
C           6.4184743    -3.3002842    -1.2835612
H           6.7697525    -4.3202479    -1.4130083
20
219_C7H9NO2S_0-4-5-15 (-150,) energy =    -875.4831525
C           0.8623910    -2.0471489     0.5343238
H           0.3134080    -2.3230210     1.4376682
H           0.8077693    -2.8416869    -0.2105537
H           0.4766483    -1.1077124     0.1337883
S           2.5816016    -1.8226100     1.0228077
N           3.2582685    -1.3560639    -0.4963748
H           3.0974449    -0.3533278    -0.5880772
O           2.6309512    -0.6858960     1.9495838
O           3.1469369    -3.1208620     1.3848691
C           7.2680975    -2.2902816    -1.4723448
H           8.2928539    -2.5288233    -1.7423440
C           6.8898378    -0.9654266    -1.2531929
H           7.6178917    -0.1645470    -1.3479194
C           5.5767715    -0.6611637    -0.8948446
H           5.2882425     0.3699388    -0.7032115
C           4.6261906    -1.6821311    -0.7801131
C           4.9995175    -3.0111574    -1.0118594
H           4.2595304    -3.7978776    -0.9248362
C           6.3198772    -3.3079237    -1.3434480
H           6.6053017    -4.3420995    -1.5150891
20
219_C7H9NO2S_0-4-5-15 (-135,) energy =    -875.4836488
C           0.9392875    -2.1869873     0.4837776
H           0.3681297    -2.4972367     1.3619576
H           1.0474025    -3.0144746    -0.2185858
H           0.4627105    -1.3295928     0.0055609
S           2.5725104    -1.7006880     1.0667642
N           3.3027474    -1.1914331    -0.4112591
H           3.2005309    -0.1785873    -0.4458767
O           2.4023812    -0.5125637     1.9102348
O           3.2688163    -2.8924671     1.5466828
C           7.2178867    -2.3515101    -1.5135668
H           8.2191289    -2.6456362    -1.8148609
C           6.9255591    -1.0111332    -1.2604681
H           7.6976902    -0.2533264    -1.3604732
C           5.6433093    -0.6353733    -0.8608112
H           5.4224554     0.4072788    -0.6434473
C           4.6354763    -1.5989518    -0.7379013
C           4.9227863    -2.9426068    -1.0052655
H           4.1411158    -3.6880120    -0.9140393
C           6.2133344    -3.3124781    -1.3773979
H           6.4306477    -4.3585875    -1.5746452
20
219_C7H9NO2S_0-4-5-15 (-120,) energy =    -875.4841982
C           1.0026447    -2.3280692     0.3592110
H           0.3923553    -2.6992152     1.1859525
H           1.2757516    -3.1447239    -0.3110029
H           0.4762287    -1.5403486    -0.1815742
S           2.4999185    -1.6349065     1.0813335
N           3.3165716    -1.0503931    -0.3151934
H           3.2707729    -0.0347364    -0.2687219
O           2.1133332    -0.4444637     1.8452138
O           3.2653129    -2.7263875     1.6802876
C           7.1316050    -2.3961646    -1.5432982
H           8.1081481    -2.7359339    -1.8757223
C           6.9100475    -1.0453861    -1.2741125
H           7.7136255    -0.3238753    -1.3931806
C           5.6600036    -0.6115765    -0.8341804
H           5.4962294     0.4393878    -0.6064985
C           4.6107341    -1.5262858    -0.6843428
C           4.8267670    -2.8801221    -0.9678942
H           4.0173276    -3.5932687    -0.8579861
C           6.0863923    -3.3081100    -1.3813290
H           6.2468621    -4.3623253    -1.5895177
20
219_C7H9NO2S_0-4-5-15 (-105,) energy =    -875.4845203
C           1.0864137    -2.3687384     0.1900030
H           0.4186165    -2.8222925     0.9262301
H           1.4963422    -3.1340622    -0.4715083
H           0.5650693    -1.5998850    -0.3815487
S           2.4299882    -1.5944783     1.1063542
N           3.3773224    -0.9230518    -0.1456903
H           3.3833369     0.0848959    -0.0142070
O           1.8831501    -0.4351287     1.8156275
O           3.1672843    -2.6505130     1.7977092
C           7.0477247    -2.4205211    -1.6105356
H           7.9881361    -2.7953426    -2.0035255
C           6.8745214    -1.0568936    -1.3715239
H           7.6813514    -0.3583795    -1.5756252
C           5.6713076    -0.5783946    -0.8562521
H           5.5471977     0.4841889    -0.6591127
C           4.6155027    -1.4609101    -0.5918941
C           4.7833546    -2.8292167    -0.8397319
H           3.9810288    -3.5276444    -0.6311040
C           5.9982416    -3.2987243    -1.3355509
H           6.1190183    -4.3636417    -1.5141906
20
219_C7H9NO2S_0-4-5-15 (-90,) energy =    -875.4845463
C           1.0781396    -2.1972494    -0.1192192
H           0.2994777    -2.7166060     0.4442865
H           1.6027421    -2.8972548    -0.7726159
H           0.6551554    -1.3716681    -0.6928880
S           2.2429667    -1.5288637     1.0811786
N           3.4076972    -0.8071545     0.0862112
H           3.4672523     0.1821579     0.3050814
O           1.6142824    -0.3970223     1.7637001
O           2.8071639    -2.6569122     1.8219920
C           6.9033838    -2.4322482    -1.6419463
H           7.8011206    -2.8340374    -2.1020605
C           6.7273173    -1.0530091    -1.5186747
H           7.4882575    -0.3684237    -1.8834690
C           5.5774349    -0.5378888    -0.9261784
H           5.4455287     0.5383214    -0.8384813
C           4.5801307    -1.4003608    -0.4463369
C           4.7537927    -2.7859626    -0.5650371
H           4.0160193    -3.4710449    -0.1657455
C           5.9126295    -3.2867293    -1.1591641
H           6.0378507    -4.3633431    -1.2370038
20
219_C7H9NO2S_0-4-5-15 (-75,) energy =    -875.4847645
C           1.1705491    -1.8167452    -0.4082081
H           0.2447204    -2.3470120    -0.1732960
H           1.7026297    -2.3252068    -1.2150795
H           0.9576818    -0.7786905    -0.6693119
S           2.1969919    -1.8449133     1.0794059
N           3.6219137    -1.0652450     0.6422921
H           3.5381883    -0.0583299     0.7251132
O           1.5790506    -0.9529994     2.0596578
O           2.5000094    -3.2425284     1.3794466
C           6.8227813    -2.4469776    -1.7409463
H           7.6547343    -2.7893374    -2.3494410
C           6.3600603    -1.1351424    -1.8539211
H           6.8268256    -0.4472148    -2.5536608
C           5.2845497    -0.7007493    -1.0815366
H           4.9129679     0.3163702    -1.1856858
C           4.6785059    -1.5696630    -0.1623619
C           5.1516742    -2.8826894    -0.0317816
H           4.6958512    -3.5481674     0.6901210
C           6.2093104    -3.3120359    -0.8332768
H           6.5673411    -4.3327074    -0.7290629
20
219_C7H9NO2S_0-4-5-15 (-60,) energy =    -875.4858047
C           1.3506908    -1.9171428    -0.4786986
H           0.4195877    -2.4624423    -0.3090530
H           1.9895070    -2.4669986    -1.1728499
H           1.1411404    -0.9116500    -0.8479481
S           2.1909906    -1.7937761     1.1176341
N           3.6664940    -1.0347521     0.7886825
H           3.5535676    -0.0259669     0.8038816
O           1.4674236    -0.8296216     1.9454619
O           2.4629192    -3.1560860     1.5710766
C           6.6953367    -2.4437680    -1.7965215
H           7.4836329    -2.7962343    -2.4552167
C           6.2846769    -1.1106033    -1.8409413
H           6.7488234    -0.4167495    -2.5365124
C           5.2653382    -0.6606958    -1.0036715
H           4.9365035     0.3752657    -1.0522181
C           4.6645172    -1.5383397    -0.0898339
C           5.0865863    -2.8740846    -0.0286182
H           4.6367797    -3.5451407     0.6930484
C           6.0877146    -3.3171647    -0.8925665
H           6.4066765    -4.3546707    -0.8414868
20
219_C7H9NO2S_0-4-5-15 (-45,) energy =    -875.4854967
C           1.5269921    -2.0376655    -0.5175297
H           0.5775428    -2.5599182    -0.3813387
H           2.2285992    -2.6657423    -1.0686408
H           1.3695283    -1.0840567    -1.0248095
S           2.1840123    -1.7300861     1.1390045
N           3.7136846    -1.0213367     0.9038195
H           3.6072122    -0.0105278     0.9139497
O           1.3962286    -0.6766800     1.7796880
O           2.3765930    -3.0380733     1.7628757
C           6.5857969    -2.4318246    -1.8531400
H           7.3328424    -2.7894111    -2.5556343
C           6.2377615    -1.0805006    -1.8230165
H           6.7107496    -0.3781501    -2.5038972
C           5.2705849    -0.6217184    -0.9299298
H           4.9911921     0.4296522    -0.9201106
C           4.6605152    -1.5126952    -0.0364565
C           5.0220246    -2.8678399    -0.0485215
H           4.5690931    -3.5481274     0.6643207
C           5.9699989    -3.3179898    -0.9667934
H           6.2421524    -4.3699246    -0.9730676
20
219_C7H9NO2S_0-4-5-15 (-30,) energy =    -875.4833433
C           1.6779075    -2.1084164    -0.5231315
H           0.6731608    -2.5254613    -0.4271191
H           2.3626545    -2.8562514    -0.9228087
H           1.6629737    -1.2149828    -1.1503172
S           2.1867134    -1.6679111     1.1560544
N           3.7875076    -1.0666569     1.0287908
H           3.7241256    -0.0527446     1.0896980
O           1.4067127    -0.5208010     1.6252193
O           2.2295252    -2.9223074     1.9062769
C           6.5089819    -2.4061607    -1.9101453
H           7.2176528    -2.7509514    -2.6573927
C           6.1739513    -1.0536030    -1.8300953
H           6.6189537    -0.3389871    -2.5169896
C           5.2553637    -0.6092991    -0.8791429
H           4.9850410     0.4432413    -0.8300489
C           4.6848520    -1.5186116     0.0206265
C           5.0367759    -2.8748891    -0.0413612
H           4.6151623    -3.5660798     0.6818973
C           5.9325744    -3.3117125    -1.0159564
H           6.1976736    -4.3644244    -1.0611732
20
219_C7H9NO2S_0-4-5-15 (-15,) energy =    -875.4801149
C           1.7696028    -2.1700401    -0.5108002
H           0.7081540    -2.4242820    -0.4698922
H           2.3630856    -3.0550018    -0.7367841
H           1.9470056    -1.3812058    -1.2438592
S           2.1712124    -1.5755621     1.1489463
N           3.8415883    -1.1328691     1.1112607
H           3.8471214    -0.1230151     1.2445630
O           1.4629321    -0.3188180     1.4117308
O           2.0190780    -2.7255140     2.0386790
C           6.4614751    -2.3754024    -1.9609637
H           7.1439478    -2.6973803    -2.7420385
C           6.1353786    -1.0248640    -1.8269646
H           6.5610403    -0.2902216    -2.5049169
C           5.2501708    -0.6079527    -0.8324319
H           4.9845186     0.4427720    -0.7403573
C           4.7051202    -1.5442071     0.0555286
C           5.0518731    -2.8980049    -0.0613302
H           4.6567534    -3.6086859     0.6588777
C           5.9129228    -3.3086235    -1.0774194
H           6.1743680    -4.3596433    -1.1640688
20
219_C7H9NO2S_0-4-5-15 (0,) energy =    -875.4772879
C           1.8074652    -2.2571061    -0.4924020
H           0.7245263    -2.3989812    -0.5126801
H           2.3160437    -3.2183603    -0.5540524
H           2.1226688    -1.5932866    -1.2985897
S           2.1331413    -1.4886158     1.1093982
N           3.8486049    -1.2161084     1.1604735
H           3.9288619    -0.2246138     1.3838164
O           1.5259305    -0.1523229     1.1427233
O           1.7927575    -2.4792075     2.1290234
C           6.4376570    -2.3284110    -1.9914043
H           7.1124470    -2.6180600    -2.7916561
C           6.0992706    -0.9861606    -1.8108284
H           6.5075453    -0.2263849    -2.4715066
C           5.2244275    -0.6110936    -0.7907404
H           4.9476723     0.4326610    -0.6615390
C           4.7015012    -1.5807205     0.0750178
C           5.0620770    -2.9251652    -0.0900062
H           4.6885143    -3.6618658     0.6155162
C           5.9130630    -3.2953585    -1.1300203
H           6.1859995    -4.3398228    -1.2528091
20
219_C7H9NO2S_0-4-5-15 (15,) energy =    -875.4801115
C           2.4060410    -1.3387548     1.1190977
H           1.5879388    -1.2707872     1.8394897
H           2.7916713    -0.3457273     0.8816103
H           3.1959846    -1.9836746     1.5019199
S           1.6705581    -2.0864067    -0.3537713
N           2.9420620    -2.2131971    -1.5170387
H           2.6753514    -1.5755915    -2.2653857
O           1.2676558    -3.4361635     0.0375671
O           0.7104573    -1.1572385    -0.9576601
C           7.0237613    -1.8735329    -0.4818345
H           8.0757544    -1.7958852    -0.2233895
C           6.4236611    -0.8978466    -1.2794882
H           7.0057587    -0.0555459    -1.6430578
C           5.0698701    -0.9868698    -1.6046908
H           4.6000046    -0.2171270    -2.2128198
C           4.3125843    -2.0748762    -1.1522469
C           4.9201166    -3.0694898    -0.3723984
H           4.3333287    -3.9294751    -0.0625834
C           6.2656343    -2.9556231    -0.0271507
H           6.7288801    -3.7282380     0.5802899
20
219_C7H9NO2S_0-4-5-15 (30,) energy =    -875.4833432
C           2.3270051    -1.2544710     1.1126559
H           1.5453112    -1.3323337     1.8713074
H           2.5006146    -0.2096468     0.8480523
H           3.2442949    -1.7275323     1.4628945
S           1.7020176    -2.1538599    -0.3271643
N           2.9448131    -2.0913088    -1.5068828
H           2.6673753    -1.3858899    -2.1859665
O           1.5497493    -3.5437355     0.1008973
O           0.5932194    -1.4124591    -0.9315363
C           7.0452318    -1.9388734    -0.5062864
H           8.1020201    -1.9077713    -0.2578839
C           6.4747271    -0.9266276    -1.2795613
H           7.0849451    -0.1008686    -1.6349265
C           5.1153877    -0.9574949    -1.5906208
H           4.6711681    -0.1586671    -2.1804255
C           4.3209185    -2.0234534    -1.1496368
C           4.8954870    -3.0546253    -0.3921824
H           4.2789680    -3.8933390    -0.0838537
C           6.2484912    -2.9969264    -0.0617879
H           6.6863570    -3.7968882     0.5288571
20
219_C7H9NO2S_0-4-5-15 (45,) energy =    -875.4854966
C           2.1892177    -1.1653725     1.1421050
H           1.4492982    -1.3604358     1.9213493
H           2.1687829    -0.1138246     0.8500023
H           3.1831828    -1.4604816     1.4818117
S           1.7211932    -2.1866169    -0.2750701
N           2.9476793    -1.9578250    -1.4330604
H           2.6649239    -1.2100331    -2.0607728
O           1.7705179    -3.5764650     0.1755056
O           0.5270324    -1.6192605    -0.9018417
C           7.0795614    -2.0152263    -0.5593531
H           8.1442617    -2.0328140    -0.3459355
C           6.5272066    -0.9685378    -1.2992600
H           7.1589636    -0.1635393    -1.6645998
C           5.1588465    -0.9382825    -1.5641913
H           4.7298846    -0.1128133    -2.1282204
C           4.3325475    -1.9756413    -1.1109371
C           4.8862098    -3.0403996    -0.3849797
H           4.2483312    -3.8556881    -0.0617140
C           6.2517790    -3.0429779    -0.1026195
H           6.6730120    -3.8690921     0.4637482
20
219_C7H9NO2S_0-4-5-15 (60,) energy =    -875.4858047
C           2.0030029    -1.0539712     1.1335892
H           1.2632160    -1.2917480     1.9012230
H           1.8530271    -0.0388117     0.7617967
H           3.0126081    -1.1841488     1.5285907
S           1.7509775    -2.2205845    -0.2247532
N           2.9774154    -1.8809025    -1.3391497
H           2.6870147    -1.1360072    -1.9647910
O           1.9708197    -3.5627388     0.3097902
O           0.5193024    -1.8549163    -0.9231122
C           7.1376539    -2.0906904    -0.6385034
H           8.2097118    -2.1441021    -0.4730901
C           6.5805827    -0.9917130    -1.2941433
H           7.2150862    -0.1807964    -1.6412801
C           5.2036193    -0.9176036    -1.4965422
H           4.7708780    -0.0519290    -1.9935807
C           4.3707754    -1.9611799    -1.0679788
C           4.9279891    -3.0759353    -0.4253761
H           4.2859153    -3.8912111    -0.1147130
C           6.3041394    -3.1230032    -0.2040584
H           6.7278223    -3.9886265     0.2978916
20
219_C7H9NO2S_0-4-5-15 (75,) energy =    -875.4847647
C           1.7998852    -0.9766745     1.1251141
H           1.0247161    -1.2469994     1.8459212
H           1.5797595    -0.0062155     0.6770070
H           2.7798442    -0.9753152     1.6071536
S           1.7872635    -2.2344631    -0.1730311
N           3.0302395    -1.7964986    -1.2182879
H           2.7252673    -1.1041739    -1.8931404
O           2.1255833    -3.5128683     0.4485715
O           0.5677222    -2.0473375    -0.9578598
C           7.2092000    -2.1639697    -0.7327375
H           8.2860053    -2.2544136    -0.6235106
C           6.6530444    -1.0219864    -1.3109704
H           7.2930485    -0.2134482    -1.6536235
C           5.2706226    -0.9018107    -1.4392565
H           4.8384980    -0.0022140    -1.8722092
C           4.4290068    -1.9409942    -1.0162092
C           4.9838140    -3.0980061    -0.4518561
H           4.3357809    -3.9076860    -0.1416157
C           6.3674134    -3.1909641    -0.3023771
H           6.7892952    -4.0893454     0.1400539
20
219_C7H9NO2S_0-4-5-15 (90,) energy =    -875.4845463
C           1.6347480    -1.4071109     1.2794418
H           0.7897292    -1.9204642     1.7441939
H           1.4632918    -0.3304618     1.2474463
H           2.5583016    -1.6388748     1.8137467
S           1.7631212    -2.0215223    -0.4089118
N           3.1237752    -1.1962330    -0.9876327
H           2.8599567    -0.6435881    -1.7970586
O           2.0105729    -3.4613115    -0.3355539
O           0.6577083    -1.4695098    -1.1934502
C           7.2147464    -2.2393744    -0.8365783
H           8.2716481    -2.4856894    -0.7997335
C           6.7420468    -1.2802548    -1.7338798
H           7.4291232    -0.7705279    -2.4038549
C           5.3864309    -0.9663914    -1.7830764
H           5.0267307    -0.2141314    -2.4816757
C           4.4783653    -1.6106541    -0.9292226
C           4.9477533    -2.5765783    -0.0287735
H           4.2598360    -3.1152278     0.6113151
C           6.3087538    -2.8816388     0.0069141
H           6.6575338    -3.6386167     0.7041768
20
219_C7H9NO2S_0-4-5-15 (105,) energy =    -875.4845204
C           1.4997440    -1.7386339     1.2251431
H           0.6324812    -2.3459995     1.4945998
H           1.2610510    -0.6761184     1.2853894
H           2.3474384    -1.9833754     1.8677342
S           1.9138500    -2.1413001    -0.4809992
N           3.2542067    -1.1234755    -0.7736077
H           2.9936289    -0.4875388    -1.5226608
O           2.3168275    -3.5457702    -0.5245682
O           0.8536941    -1.6094521    -1.3406812
C           7.3125205    -2.2908029    -0.9353282
H           8.3608119    -2.5715796    -0.9742152
C           6.7793191    -1.4208872    -1.8869047
H           7.4088733    -1.0187573    -2.6759164
C           5.4314143    -1.0695976    -1.8440110
H           5.0185252    -0.4020781    -2.5972014
C           4.6023820    -1.5709759    -0.8317187
C           5.1379126    -2.4370595     0.1300739
H           4.5076422    -2.8423894     0.9133786
C           6.4823116    -2.7984284     0.0654845
H           6.8828121    -3.4787757     0.8120326
20
219_C7H9NO2S_0-4-5-15 (120,) energy =    -875.4841983
C           1.3290288    -1.7868920     1.1552324
H           0.4429286    -2.4105327     1.2952701
H           1.0614139    -0.7297153     1.1840151
H           2.0825664    -2.0183615     1.9097517
S           1.9913060    -2.1733625    -0.4744266
N           3.3249106    -1.0912081    -0.5693115
H           3.0687473    -0.3809304    -1.2517072
O           2.4748615    -3.5523864    -0.4553030
O           1.0228358    -1.7017317    -1.4692577
C           7.3377798    -2.3386523    -1.0312403
H           8.3743146    -2.6428654    -1.1435752
C           6.7512313    -1.4810440    -1.9621688
H           7.3265685    -1.1130584    -2.8071996
C           5.4164912    -1.1014339    -1.8255343
H           4.9566545    -0.4482815    -2.5638600
C           4.6630540    -1.5585945    -0.7376702
C           5.2540007    -2.4076281     0.2056705
H           4.6771293    -2.7619566     1.0527165
C           6.5803602    -2.8028132     0.0463711
H           7.0271079    -3.4698835     0.7784343
20
219_C7H9NO2S_0-4-5-15 (135,) energy =    -875.4836489
C           1.1926428    -1.7148518     1.0995915
H           0.2948251    -2.3342227     1.1626548
H           0.9210616    -0.6603163     1.0280140
H           1.8447264    -1.8919365     1.9558551
S           2.0590608    -2.2006166    -0.4027803
N           3.3889875    -1.1017655    -0.3762249
H           3.1288903    -0.3244091    -0.9808495
O           2.5698957    -3.5583714    -0.2265808
O           1.2056309    -1.8371230    -1.5392342
C           7.3601134    -2.3420174    -1.1382432
H           8.3863333    -2.6450003    -1.3249223
C           6.7190856    -1.4588296    -2.0072588
H           7.2409251    -1.0704432    -2.8774869
C           5.3970931    -1.0802770    -1.7746535
H           4.8918779    -0.4081680    -2.4647161
C           4.7153065    -1.5640369    -0.6519479
C           5.3611692    -2.4390790     0.2293245
H           4.8344728    -2.8103698     1.1009371
C           6.6727619    -2.8332606    -0.0258708
H           7.1642958    -3.5196668     0.6580246
20
219_C7H9NO2S_0-4-5-15 (150,) energy =    -875.4831527
C           1.0694829    -1.6219453     0.9863279
H           0.1670309    -2.2375848     0.9959484
H           0.8123023    -0.5835472     0.7687496
H           1.6039111    -1.7023151     1.9334530
S           2.1172334    -2.2616944    -0.3318516
N           3.4377377    -1.1535036    -0.2190315
H           3.1702577    -0.3310462    -0.7592870
O           2.6084864    -3.5840778     0.0502751
O           1.4085151    -2.0500870    -1.5993640
C           7.3715997    -2.3447823    -1.2232909
H           8.3887558    -2.6357857    -1.4695345
C           6.6910612    -1.4257410    -2.0224271
H           7.1725128    -0.9978973    -2.8974094
C           5.3809265    -1.0616312    -1.7124145
H           4.8436944    -0.3613587    -2.3481603
C           4.7529826    -1.5970154    -0.5818981
C           5.4374539    -2.5095830     0.2293124
H           4.9482975    -2.9190203     1.1051893
C           6.7366290    -2.8873237    -0.1035432
H           7.2602932    -3.6015656     0.5258040
20
219_C7H9NO2S_0-4-5-15 (165,) energy =    -875.4825390
C           0.9870564    -1.5402565     0.9029871
H           0.0880537    -2.1605204     0.8843621
H           0.7572020    -0.5434347     0.5209515
H           1.4030344    -1.4903940     1.9096401
S           2.1792788    -2.3412151    -0.1852312
N           3.4795971    -1.2103269    -0.0389171
H           3.1856923    -0.3667904    -0.5328062
O           2.6216713    -3.5962618     0.4206752
O           1.6237445    -2.3206541    -1.5434302
C           7.3550024    -2.3377004    -1.3119698
H           8.3568830    -2.6144940    -1.6275161
C           6.6375542    -1.3751835    -2.0230264
H           7.0742055    -0.8999096    -2.8970349
C           5.3465788    -1.0282196    -1.6256401
H           4.7790169    -0.2943383    -2.1935092
C           4.7774611    -1.6251107    -0.4950156
C           5.4990165    -2.5822410     0.2284674
H           5.0518876    -3.0371318     1.1041047
C           6.7781244    -2.9414550    -0.1922016
H           7.3317188    -3.6898304     0.3681021
20
219_C7H9NO2S_0-4-5-15 (180,) energy =    -875.4814970
C           0.8296279    -1.7310985     0.6098497
H           0.3043280    -2.0257561     1.5210489
H           0.4553817    -2.2906296    -0.2481815
H           0.7288553    -0.6541052     0.4595027
S           2.5644224    -2.1436854     0.8796845
N           3.1904449    -1.6550836    -0.6582290
H           2.9429890    -0.6707158    -0.7700133
O           3.0662529    -1.2813664     1.9558368
O           2.7144461    -3.5960159     0.9692897
C           7.3300237    -2.1628542    -1.3785389
H           8.3889669    -2.2956354    -1.5808100
C           6.7870602    -0.8802044    -1.2953832
H           7.4204438    -0.0074534    -1.4279151
C           5.4298398    -0.7091068    -1.0242686
H           5.0125173     0.2917111    -0.9368950
C           4.6027777    -1.8257787    -0.8623234
C           5.1404164    -3.1154676    -0.9560237
H           4.4908841    -3.9742000    -0.8342651
C           6.5030877    -3.2744722    -1.2016802
H           6.9175853    -4.2766067    -1.2677398
