21
187_C8H10N2O_2-3-16-17 (-165,) energy =    -495.6206634
N           1.3188538    -0.8137176    -0.4822589
H           1.3127835    -0.4225153    -1.4153437
C           2.5175311    -1.3452017    -0.0314828
N           3.6230237    -0.7868446    -0.6664462
H           3.4512856     0.0535649    -1.2023459
O           2.5757818    -2.1961549     0.8456816
C           0.0711113    -1.4197929    -0.0413743
H          -0.1609325    -2.3539333    -0.5718278
H          -0.7456622    -0.7087526    -0.1945102
H           0.1549459    -1.6461059     1.0220020
C           7.7426816    -1.4158264    -0.0024977
H           8.8067663    -1.5673658     0.1540171
C           6.8137377    -2.3101698     0.5311902
H           7.1544534    -3.1656266     1.1089181
C           5.4432817    -2.1341727     0.3411056
H           4.7283943    -2.8235758     0.7672899
C           4.9856190    -1.0328479    -0.3992879
C           5.9189443    -0.1301656    -0.9339938
H           5.5696836     0.7268518    -1.5077714
C           7.2839847    -0.3225064    -0.7387733
H           7.9879897     0.3888316    -1.1626335
21
187_C8H10N2O_2-3-16-17 (-150,) energy =    -495.6201828
N           1.3277163    -0.8442044    -0.5286117
H           1.2990245    -0.5769634    -1.5041058
C           2.5323949    -1.3326172    -0.0492460
N           3.6251869    -0.8928902    -0.7979063
H           3.4519945    -0.0877211    -1.3861076
O           2.6134254    -2.0593050     0.9304096
C           0.0862468    -1.3650714     0.0246238
H          -0.1773941    -2.3541442    -0.3754828
H          -0.7245419    -0.6636848    -0.1917242
H           0.2026034    -1.4566051     1.1049559
C           7.7295595    -1.3824701     0.0533434
H           8.7894909    -1.5029742     0.2579563
C           6.8118894    -2.3411377     0.4869094
H           7.1576771    -3.2150969     1.0328908
C           5.4483942    -2.2057945     0.2291680
H           4.7409820    -2.9461455     0.5762598
C           4.9863476    -1.0805207    -0.4698782
C           5.9057844    -0.1111788    -0.8977121
H           5.5508592     0.7677954    -1.4332510
C           7.2668314    -0.2660619    -0.6441781
H           7.9631591     0.4945663    -0.9874046
21
187_C8H10N2O_2-3-16-17 (-135,) energy =    -495.6191924
N           1.3440195    -0.8822259    -0.5666324
H           1.2868363    -0.7473251    -1.5678941
C           2.5582987    -1.3210654    -0.0670571
N           3.6305026    -1.0141170    -0.9137413
H           3.4550518    -0.2540657    -1.5597327
O           2.6720230    -1.9096742     0.9970152
C           0.1156357    -1.3034752     0.0908664
H          -0.1750782    -2.3315633    -0.1667821
H          -0.6929483    -0.6222257    -0.1888933
H           0.2687879    -1.2547040     1.1694059
C           7.7113117    -1.3487249     0.1134472
H           8.7644588    -1.4331213     0.3660319
C           6.8208151    -2.3730803     0.4429201
H           7.1818374    -3.2609554     0.9553127
C           5.4688333    -2.2815926     0.1170509
H           4.7802223    -3.0746133     0.3782286
C           4.9909123    -1.1391746    -0.5394242
C           5.8787586    -0.1020952    -0.8543209
H           5.5061366     0.7934476    -1.3482253
C           7.2327178    -0.2134128    -0.5410873
H           7.9093436     0.5968256    -0.7995752
21
187_C8H10N2O_2-3-16-17 (-120,) energy =    -495.6176421
N           1.3523855    -0.9071606    -0.6109489
H           1.2670677    -0.9140145    -1.6193862
C           2.5739187    -1.3007321    -0.0925854
N           3.6251703    -1.1430459    -1.0102241
H           3.4499422    -0.4406429    -1.7198147
O           2.7163787    -1.7392098     1.0373139
C           0.1390651    -1.2112387     0.1335625
H          -0.1755881    -2.2588392     0.0267456
H          -0.6675602    -0.5583885    -0.2119740
H           0.3275448    -1.0201487     1.1904974
C           7.6794109    -1.3198338     0.1590756
H           8.7244288    -1.3676781     0.4521279
C           6.8339225    -2.4089837     0.3834830
H           7.2207335    -3.3086911     0.8545478
C           5.4949452    -2.3610151     0.0002611
H           4.8366823    -3.2045389     0.1716757
C           4.9864679    -1.2054802    -0.6042323
C           5.8248890    -0.1028997    -0.8047439
H           5.4229391     0.8047537    -1.2504686
C           7.1698788    -0.1677439    -0.4406865
H           7.8135528     0.6908359    -0.6127248
21
187_C8H10N2O_2-3-16-17 (-105,) energy =    -495.6157182
N           1.3580963    -0.9471889    -0.6549300
H           1.2510627    -1.1204919    -1.6463221
C           2.5890217    -1.2642180    -0.1065346
N           3.6220176    -1.2676442    -1.0600638
H           3.4480129    -0.6560209    -1.8502961
O           2.7565346    -1.5183028     1.0746712
C           0.1608681    -1.1177550     0.1551575
H          -0.1588549    -2.1667119     0.2289496
H          -0.6518995    -0.5256137    -0.2751422
H           0.3733177    -0.7573025     1.1622509
C           7.6584805    -1.2936319     0.1921276
H           8.6972752    -1.3055514     0.5103020
C           6.8750447    -2.4440499     0.3091269
H           7.3024168    -3.3542991     0.7210320
C           5.5452405    -2.4371771    -0.1088524
H           4.9307098    -3.3274380    -0.0278462
C           4.9866083    -1.2701262    -0.6378639
C           5.7607875    -0.1087522    -0.7267877
H           5.3149928     0.8065790    -1.1096460
C           7.0984221    -0.1269708    -0.3303388
H           7.6963548     0.7765421    -0.4149545
21
187_C8H10N2O_2-3-16-17 (-90,) energy =    -495.6141705
N           1.3967096    -1.2950179    -0.5763072
H           1.2893667    -1.2587992    -1.5821276
C           2.6563570    -0.9899435    -0.0863995
N           3.6733332    -1.2105168    -1.0283089
H           3.4556053    -1.9313499    -1.7081102
O           2.8596700    -0.5728799     1.0420456
C           0.2275651    -0.9125415     0.2016679
H          -0.6317696    -1.5063193    -0.1233572
H          -0.0177867     0.1548158     0.1083590
H           0.4317006    -1.1214815     1.2523800
C           7.7510377    -1.2118339     0.0967595
H           8.8028057    -1.2101625     0.3695885
C           7.0343255    -2.4096819     0.0823235
H           7.5239347    -3.3434450     0.3456449
C           5.6821858    -2.4115730    -0.2616013
H           5.1166174    -3.3401820    -0.2588932
C           5.0428427    -1.2157759    -0.6023654
C           5.7655138    -0.0203428    -0.6052771
H           5.2601701     0.8979568    -0.8872337
C           7.1123372    -0.0174255    -0.2429042
H           7.6664466     0.9173380    -0.2385114
21
187_C8H10N2O_2-3-16-17 (-75,) energy =    -495.6159521
N           1.4000188    -1.3220811    -0.5091403
H           1.2916581    -1.4836837    -1.5023127
C           2.6590220    -0.9366336    -0.0835038
N           3.6755146    -1.3258015    -0.9738856
H           3.4482905    -2.1542405    -1.5132767
O           2.8644252    -0.3194033     0.9485064
C           0.2301641    -0.8054224     0.1857623
H          -0.6269862    -1.4527912    -0.0207454
H          -0.0190291     0.2244665    -0.1061123
H           0.4364830    -0.8132580     1.2565603
C           7.7648926    -1.1959916     0.0822371
H           8.8211078    -1.1607494     0.3343765
C           7.1129031    -2.4237543    -0.0367917
H           7.6575247    -3.3503691     0.1237227
C           5.7541518    -2.4684795    -0.3519121
H           5.2408903    -3.4245711    -0.4284539
C           5.0424669    -1.2834029    -0.5626327
C           5.7016790    -0.0535563    -0.4683062
H           5.1445217     0.8591795    -0.6505827
C           7.0527570    -0.0127853    -0.1291751
H           7.5551745     0.9471580    -0.0454580
21
187_C8H10N2O_2-3-16-17 (-60,) energy =    -495.6179301
N           1.3943695    -1.3465522    -0.4528606
H           1.2924353    -1.6754591    -1.4044896
C           2.6512059    -0.8995184    -0.0849972
N           3.6720580    -1.4359026    -0.8861019
H           3.4344605    -2.3201153    -1.3211265
O           2.8470235    -0.1203315     0.8338720
C           0.2200041    -0.7187207     0.1347965
H          -0.6368238    -1.3907660     0.0322642
H          -0.0236428     0.2475115    -0.3287817
H           0.4168263    -0.5468032     1.1934790
C           7.7820776    -1.1793612     0.0445457
H           8.8439737    -1.1138849     0.2642541
C           7.1806439    -2.4219485    -0.1555769
H           7.7699736    -3.3328207    -0.0918260
C           5.8150425    -2.5048151    -0.4284472
H           5.3452981    -3.4763939    -0.5687376
C           5.0411303    -1.3421364    -0.5159861
C           5.6481541    -0.0924505    -0.3393213
H           5.0469099     0.8057101    -0.4164469
C           7.0077090    -0.0197003    -0.0438154
H           7.4681454     0.9535555     0.1039011
21
187_C8H10N2O_2-3-16-17 (-45,) energy =    -495.6194226
N           1.3864977    -1.3562517    -0.3967719
H           1.2971841    -1.8168814    -1.2933569
C           2.6412008    -0.8704150    -0.0702489
N           3.6683246    -1.5291857    -0.7559490
H           3.4236472    -2.4462740    -1.1091379
O           2.8221195     0.0330503     0.7317196
C           0.2083055    -0.6417569     0.0723860
H          -0.6546516    -1.3129836     0.0415171
H          -0.0120971     0.2548615    -0.5237278
H           0.3833536    -0.3295161     1.1023880
C           7.8063323    -1.1660723    -0.0097093
H           8.8749476    -1.0782109     0.1643491
C           7.2345183    -2.4121819    -0.2672268
H           7.8535158    -3.3050531    -0.2950811
C           5.8616096    -2.5239083    -0.4818353
H           5.4192415    -3.5004873    -0.6704552
C           5.0436786    -1.3865646    -0.4511724
C           5.6188226    -0.1303607    -0.2118140
H           4.9877959     0.7483987    -0.1873787
C           6.9896472    -0.0333127     0.0195825
H           7.4237909     0.9438676     0.2143845
21
187_C8H10N2O_2-3-16-17 (-30,) energy =    -495.6202977
N           1.3742937    -1.3770917    -0.3467953
H           1.3013857    -1.9496299    -1.1779440
C           2.6236907    -0.8515499    -0.0580478
N           3.6610763    -1.6012802    -0.6122626
H           3.4150048    -2.5384074    -0.9041738
O           2.7824444     0.1533101     0.6200995
C           0.1893933    -0.6049559    -0.0022921
H          -0.6768351    -1.2719882     0.0265239
H          -0.0087907     0.2117137    -0.7105473
H           0.3385607    -0.1679184     0.9855188
C           7.8216725    -1.1513126    -0.0710985
H           8.8956790    -1.0463775     0.0527245
C           7.2636012    -2.3940257    -0.3731531
H           7.8989589    -3.2684352    -0.4869476
C           5.8853384    -2.5268834    -0.5252721
H           5.4570694    -3.5013663    -0.7542643
C           5.0419177    -1.4146586    -0.3832526
C           5.6006842    -0.1609675    -0.0913396
H           4.9533626     0.6968808     0.0269516
C           6.9808485    -0.0457053     0.0693122
H           7.4015430     0.9290437     0.3025226
21
187_C8H10N2O_2-3-16-17 (-15,) energy =    -495.6206888
N           1.3709497    -1.3865223    -0.2940861
H           1.3087845    -2.0625294    -1.0443314
C           2.6172760    -0.8294110    -0.0512078
N           3.6602617    -1.6488733    -0.4714054
H           3.4128102    -2.6010031    -0.7060458
O           2.7623668     0.2558933     0.4949006
C           0.1825264    -0.5762488    -0.0715657
H          -0.6849239    -1.2340365     0.0336462
H          -0.0051311     0.1391371    -0.8845126
H           0.3189466    -0.0119446     0.8514161
C           7.8345697    -1.1435334    -0.1227792
H           8.9118289    -1.0287604    -0.0446978
C           7.2780829    -2.3753182    -0.4705430
H           7.9180206    -3.2316141    -0.6667544
C           5.8968259    -2.5200630    -0.5672818
H           5.4717659    -3.4851147    -0.8388617
C           5.0449305    -1.4317890    -0.3181540
C           5.6005203    -0.1898376     0.0274369
H           4.9477604     0.6474585     0.2295487
C           6.9862049    -0.0630726     0.1233419
H           7.4041432     0.9027052     0.3958079
21
187_C8H10N2O_2-3-16-17 (0,) energy =    -495.6207254
N           1.1868287    -1.1643994    -0.1543443
H           1.1128274    -0.6806639     0.7311158
C           2.4478036    -1.2527082    -0.7247378
N           3.4685970    -1.1821435     0.2148679
H           3.1919123    -1.1910693     1.1871149
O           2.6184177    -1.4112213    -1.9265554
C           0.0261515    -1.0684217    -1.0271763
H          -0.1061133    -0.0643915    -1.4540540
H          -0.8698064    -1.3374066    -0.4605563
H           0.1545111    -1.7718239    -1.8504940
C           7.6614898    -1.2147661    -0.2550163
H           8.7427655    -1.2205220    -0.3578047
C           7.0711163    -1.1196022     1.0061633
H           7.6884899    -1.0498787     1.8979515
C           5.6850678    -1.1116757     1.1343432
H           5.2344117    -1.0333854     2.1225391
C           4.8609759    -1.2016600     0.0001772
C           5.4505517    -1.3011642    -1.2700324
H           4.8186263    -1.3790696    -2.1432338
C           6.8411394    -1.3042431    -1.3803271
H           7.2853152    -1.3818472    -2.3694470
21
187_C8H10N2O_2-3-16-17 (15,) energy =    -495.6206915
N           1.1910915    -1.1173813    -0.1445416
H           1.1122521    -0.5323369     0.6772044
C           2.4520719    -1.2437640    -0.7074958
N           3.4729256    -1.0295563     0.2128772
H           3.1981185    -1.0045025     1.1857720
O           2.6259408    -1.5365944    -1.8827283
C           0.0266483    -1.1426857    -1.0175338
H          -0.1272235    -0.1950334    -1.5524260
H          -0.8624187    -1.3655677    -0.4208794
H           0.1680719    -1.9303052    -1.7582805
C           7.6595900    -1.2731494    -0.2517967
H           8.7395174    -1.3280170    -0.3542629
C           7.0711946    -1.2168766     1.0124967
H           7.6886158    -1.2273777     1.9068960
C           5.6865087    -1.1496175     1.1406515
H           5.2366406    -1.1074501     2.1313892
C           4.8630431    -1.1353956     0.0031766
C           5.4510302    -1.1877057    -1.2704371
H           4.8200207    -1.1881714    -2.1478630
C           6.8395642    -1.2588391    -1.3809952
H           7.2825060    -1.3028747    -2.3727103
21
187_C8H10N2O_2-3-16-17 (30,) energy =    -495.6202977
N           1.1969005    -1.0627611    -0.1351042
H           1.1104281    -0.3824303     0.6089374
C           2.4592958    -1.2348976    -0.6803533
N           3.4774013    -0.8733417     0.2017774
H           3.2069433    -0.7994339     1.1740749
O           2.6434620    -1.6689590    -1.8084066
C           0.0323155    -1.2138232    -0.9952108
H          -0.1428693    -0.3371639    -1.6344540
H          -0.8513814    -1.3866034    -0.3744497
H           0.1913316    -2.0777636    -1.6412304
C           7.6474750    -1.3317552    -0.2525877
H           8.7236469    -1.4371764    -0.3554328
C           7.0569488    -1.3147744     1.0115338
H           7.6689612    -1.4072459     1.9049027
C           5.6759306    -1.1856880     1.1401131
H           5.2222226    -1.1801325     2.1298545
C           4.8622779    -1.0651220     0.0034499
C           5.4537776    -1.0697600    -1.2690621
H           4.8294513    -0.9853523    -2.1477065
C           6.8362081    -1.2111690    -1.3823521
H           7.2823551    -1.2207414    -2.3734947
21
187_C8H10N2O_2-3-16-17 (45,) energy =    -495.6194226
N           1.2099095    -1.0099547    -0.1436717
H           1.1103393    -0.2402628     0.5057155
C           2.4764662    -1.2279198    -0.6587859
N           3.4868662    -0.7173768     0.1643727
H           3.2184392    -0.5793939     1.1311100
O           2.6798907    -1.8053374    -1.7158238
C           0.0502125    -1.2948959    -0.9759654
H          -0.1448921    -0.5089029    -1.7189351
H          -0.8303007    -1.4102958    -0.3375509
H           0.2313671    -2.2284228    -1.5095788
C           7.6316966    -1.3946097    -0.2524457
H           8.7019457    -1.5526423    -0.3501783
C           7.0272524    -1.4216087     1.0045311
H           7.6222518    -1.6016624     1.8959938
C           5.6522525    -1.2270523     1.1268294
H           5.1842627    -1.2611150     2.1090737
C           4.8649646    -0.9927610    -0.0084153
C           5.4729969    -0.9458258    -1.2710490
H           4.8657352    -0.7655903    -2.1484137
C           6.8454806    -1.1600573    -1.3828525
H           7.3052166    -1.1318262    -2.3673069
21
187_C8H10N2O_2-3-16-17 (60,) energy =    -495.6179301
N           1.2176812    -0.9527125    -0.1403660
H           1.1089143    -0.0996958     0.3932050
C           2.4852305    -1.2196778    -0.6269954
N           3.4930199    -0.5691550     0.1029860
H           3.2327940    -0.3442144     1.0565194
O           2.6999215    -1.9395337    -1.5890265
C           0.0592880    -1.3733758    -0.9148378
H          -0.1577175    -0.7008160    -1.7565293
H          -0.8148971    -1.4191933    -0.2590841
H           0.2585956    -2.3669914    -1.3174650
C           7.6065137    -1.4505560    -0.2527863
H           8.6693254    -1.6582660    -0.3392174
C           6.9725134    -1.5323545     0.9870313
H           7.5371682    -1.8055868     1.8744832
C           5.6057497    -1.2743591     1.0946838
H           5.1105219    -1.3540743     2.0604495
C           4.8633542    -0.9194187    -0.0372571
C           5.5031774    -0.8132086    -1.2785261
H           4.9263023    -0.5297228    -2.1508688
C           6.8635831    -1.0954852    -1.3816114
H           7.3495517    -1.0225366    -2.3509215
21
187_C8H10N2O_2-3-16-17 (75,) energy =    -495.6159520
N           1.2180847    -0.8719531    -0.1312777
H           1.1093822     0.0597670     0.2488288
C           2.4846721    -1.2082160    -0.5765485
N           3.4948249    -0.4395328     0.0284460
H           3.2490809    -0.1003101     0.9522850
O           2.7009197    -2.0731599    -1.4091686
C           0.0590677    -1.4181382    -0.8220727
H          -0.1612160    -0.8963502    -1.7639685
H          -0.8139286    -1.3555773    -0.1660475
H           0.2599059    -2.4646459    -1.0538405
C           7.5811754    -1.4791552    -0.2445402
H           8.6367463    -1.7274903    -0.3117320
C           6.8992665    -1.6369932     0.9624524
H           7.4198068    -2.0104823     1.8402522
C           5.5413377    -1.3263938     1.0464252
H           5.0046473    -1.4650886     1.9824415
C           4.8608460    -0.8431538    -0.0754166
C           5.5498778    -0.6611997    -1.2787505
H           5.0162571    -0.2698477    -2.1383032
C           6.8999558    -0.9959786    -1.3645255
H           7.4258625    -0.8635617    -2.3062299
21
187_C8H10N2O_2-3-16-17 (90,) energy =    -495.6141705
N           1.2209991    -0.8192346    -0.1605773
H           1.1173170     0.1694809     0.0297541
C           2.4871967    -1.2380703    -0.5362408
N           3.5001045    -0.3788474    -0.0824517
H           3.2651280     0.1217604     0.7679932
O           2.6987739    -2.2435454    -1.1941520
C           0.0608577    -1.4796008    -0.7406562
H          -0.1546573    -1.1440264    -1.7649101
H          -0.8137057    -1.2904560    -0.1113542
H           0.2564708    -2.5520503    -0.7707748
C           7.5741696    -1.5075781    -0.2339432
H           8.6251123    -1.7810212    -0.2720789
C           6.8256841    -1.7587862     0.9173332
H           7.2912042    -2.2307399     1.7784110
C           5.4745653    -1.4136012     0.9636053
H           4.8835729    -1.6213562     1.8523038
C           4.8680327    -0.8058151    -0.1397162
C           5.6219772    -0.5379461    -1.2847474
H           5.1416928    -0.0511745    -2.1276563
C           6.9676558    -0.9010347    -1.3357468
H           7.5461451    -0.6980329    -2.2329423
21
187_C8H10N2O_2-3-16-17 (105,) energy =    -495.6157181
N           1.2122739    -0.6547324    -0.5036998
H           1.0958625     0.2718719    -0.1136297
C           2.4351688    -1.2643875    -0.2819915
N           3.4640366    -0.3393492    -0.0316826
H           3.3054151     0.5681769    -0.4560708
O           2.5993361    -2.4729452    -0.2963951
C           0.0138471    -1.4788948    -0.5592714
H          -0.7817251    -0.9232821    -1.0640027
H          -0.3385478    -1.7875809     0.4349643
H           0.2420200    -2.3787131    -1.1316006
C           7.5020332    -1.5797212    -0.1624768
H           8.5410469    -1.8961849    -0.1902167
C           6.6834264    -1.9500579     0.9069319
H           7.0834836    -2.5581510     1.7138044
C           5.3530507    -1.5364221     0.9528990
H           4.7111843    -1.8135134     1.7823725
C           4.8292965    -0.7558550    -0.0817265
C           5.6390914    -0.4104286    -1.1685038
H           5.2213258     0.1706756    -1.9876276
C           6.9768423    -0.8056754    -1.1982019
H           7.6023816    -0.5218300    -2.0403113
21
187_C8H10N2O_2-3-16-17 (120,) energy =    -495.6176398
N           1.2128069    -0.6934614    -0.5584093
H           1.1233274     0.2863672    -0.3212896
C           2.4240554    -1.2924124    -0.2581665
N           3.4770723    -0.3681725    -0.1712291
H           3.3207498     0.4848834    -0.6958592
O           2.5553446    -2.4931179    -0.0835392
C          -0.0056474    -1.4848025    -0.4668529
H          -0.8004472    -0.9843539    -1.0271566
H          -0.3379100    -1.6385337     0.5693846
H           0.1842265    -2.4629538    -0.9101121
C           7.5286849    -1.5607993    -0.1355059
H           8.5728073    -1.8606348    -0.1228285
C           6.6498264    -2.0234245     0.8468816
H           7.0105554    -2.6878833     1.6274978
C           5.3115352    -1.6348055     0.8450613
H           4.6281466    -1.9919041     1.6063839
C           4.8373325    -0.7814953    -0.1581084
C           5.7094934    -0.3398613    -1.1597065
H           5.3333283     0.3009117    -1.9546410
C           7.0532849    -0.7136525    -1.1369569
H           7.7229012    -0.3537221    -1.9135821
21
187_C8H10N2O_2-3-16-17 (135,) energy =    -495.6191913
N           1.2068113    -0.7326708    -0.5924782
H           1.1487037     0.2727908    -0.4939724
C           2.4087521    -1.3226141    -0.2403486
N           3.4872713    -0.4325219    -0.3146336
H           3.3329320     0.3686566    -0.9147721
O           2.5072209    -2.4930689     0.0941390
C          -0.0301500    -1.4669284    -0.3688339
H          -0.8266331    -1.0149976    -0.9665830
H          -0.3346619    -1.4782732     0.6870424
H           0.1170891    -2.4987349    -0.6897893
C           7.5587097    -1.5247586    -0.0975110
H           8.6093703    -1.7945237    -0.0398269
C           6.6389790    -2.0745103     0.7983729
H           6.9731819    -2.7761586     1.5581471
C           5.2895098    -1.7309765     0.7417603
H           4.5782057    -2.1623702     1.4340157
C           4.8443447    -0.8310521    -0.2363083
C           5.7621924    -0.2926477    -1.1477416
H           5.4162395     0.3929208    -1.9191811
C           7.1130298    -0.6281919    -1.0691311
H           7.8132403    -0.1955268    -1.7788109
21
187_C8H10N2O_2-3-16-17 (150,) energy =    -495.6201814
N           1.1913307    -0.7611872    -0.6401229
H           1.1661145     0.2498160    -0.6740146
C           2.3822359    -1.3430036    -0.2364182
N           3.4855689    -0.5183540    -0.4613809
H           3.3353094     0.2366684    -1.1183768
O           2.4431635    -2.4619174     0.2520517
C          -0.0620054    -1.4161651    -0.2944170
H          -0.8604591    -1.0106060    -0.9219632
H          -0.3338178    -1.2873162     0.7625574
H           0.0394076    -2.4842719    -0.4898724
C           7.5754247    -1.4739360    -0.0489161
H           8.6317584    -1.7045111     0.0551923
C           6.6296853    -2.1094206     0.7578340
H           6.9496048    -2.8401657     1.4961685
C           5.2702820    -1.8224289     0.6416313
H           4.5414352    -2.3253776     1.2620030
C           4.8413119    -0.8853335    -0.3103634
C           5.7891231    -0.2530237    -1.1288226
H           5.4605186     0.4687533    -1.8747722
C           7.1454243    -0.5404078    -0.9926675
H           7.8640907    -0.0368820    -1.6339146
21
187_C8H10N2O_2-3-16-17 (165,) energy =    -495.6206670
N           1.1808908    -0.8032654    -0.6823211
H           1.1829576     0.1961877    -0.8403169
C           2.3645457    -1.3701724    -0.2344224
N           3.4845341    -0.6298230    -0.5996738
H           3.3346856     0.0899701    -1.2941081
O           2.3990062    -2.4198878     0.3931071
C          -0.0812048    -1.3686722    -0.2275147
H          -0.8843749    -1.0158224    -0.8804012
H          -0.3188740    -1.1030381     0.8120195
H          -0.0181944    -2.4554510    -0.2927664
C           7.5840662    -1.4270090     0.0033127
H           8.6433313    -1.6157724     0.1519449
C           6.6279308    -2.1444119     0.7236635
H           6.9430447    -2.8992297     1.4396021
C           5.2632363    -1.9162538     0.5481757
H           4.5268873    -2.4833448     1.0997891
C           4.8398187    -0.9475015    -0.3752064
C           5.8001702    -0.2272742    -1.1038337
H           5.4779680     0.5239295    -1.8232641
C           7.1588401    -0.4641281    -0.9131048
H           7.8844424     0.1058051    -1.4875086
21
187_C8H10N2O_2-3-16-17 (180,) energy =    -495.6207304
N           1.1764746    -0.8483827    -0.7099839
H           1.1983047     0.1228982    -0.9923769
C           2.3575653    -1.3942460    -0.2298737
N           3.4855813    -0.7500652    -0.7221979
H           3.3339089    -0.0590188    -1.4442558
O           2.3800669    -2.3628565     0.5183273
C          -0.0869291    -1.3190806    -0.1613670
H          -0.8973213    -1.0311120    -0.8368823
H          -0.2939164    -0.9183363     0.8407556
H          -0.0497517    -2.4066070    -0.0894600
C           7.5842130    -1.3821193     0.0539448
H           8.6433908    -1.5301569     0.2436437
C           6.6314424    -2.1800056     0.6886977
H           6.9492002    -2.9576833     1.3785642
C           5.2666056    -2.0081058     0.4572741
H           4.5321179    -2.6334054     0.9445810
C           4.8397854    -1.0087667    -0.4315721
C           5.7971992    -0.2033152    -1.0704387
H           5.4724740     0.5753260    -1.7589410
C           7.1554200    -0.3909661    -0.8303491
H           7.8781567     0.2431348    -1.3371611
