21
187_C8H10N2O_0-2-3-16 (-165,) energy =    -495.6202687
N           1.1140586    -0.7394187    -0.4966981
H           1.1927610    -0.2723970    -1.3902086
C           2.2782689    -1.2484862     0.0552628
N           3.4136410    -0.5576337    -0.3535906
H           3.2617777     0.2890083    -0.8847449
O           2.2827249    -2.1848162     0.8437046
C          -0.1474670    -1.4155928    -0.2351063
H          -0.2780785    -2.3231166    -0.8407090
H          -0.9721707    -0.7268374    -0.4394406
H          -0.1735972    -1.7046926     0.8161340
C           7.4916982    -1.6092598    -0.1091749
H           8.5454468    -1.8671795    -0.0561150
C           6.5371622    -2.3901383     0.5440960
H           6.8477418    -3.2629889     1.1127485
C           5.1797360    -2.0735970     0.4928653
H           4.4442830    -2.6727682     1.0111253
C           4.7615955    -0.9509853    -0.2391430
C           5.7207481    -0.1624101    -0.8958822
H           5.4032982     0.7106992    -1.4639015
C           7.0723297    -0.4891062    -0.8286010
H           7.7971619     0.1355129    -1.3441480
21
187_C8H10N2O_0-2-3-16 (-150,) energy =    -495.6188462
N           1.1549860    -0.7612791    -0.5209146
H           1.2904050    -0.3062649    -1.4131700
C           2.2813932    -1.1857043     0.1587007
N           3.4172862    -0.4345728    -0.1468840
H           3.2618410     0.3899450    -0.7121318
O           2.2625877    -2.1051085     0.9658817
C          -0.1023411    -1.4681298    -0.3338857
H          -0.1551702    -2.3993287    -0.9144121
H          -0.9298431    -0.8156763    -0.6270529
H          -0.2023373    -1.7227472     0.7219694
C           7.4560641    -1.6601524    -0.2013338
H           8.4990948    -1.9624656    -0.2227694
C           6.5181611    -2.3984768     0.5222058
H           6.8317223    -3.2824946     1.0716062
C           5.1762405    -2.0214156     0.5679916
H           4.4543469    -2.5854375     1.1426905
C           4.7547623    -0.8855524    -0.1406871
C           5.6966473    -0.1390176    -0.8663644
H           5.3762286     0.7458449    -1.4141308
C           7.0349017    -0.5233014    -0.8927553
H           7.7474497     0.0688365    -1.4610418
21
187_C8H10N2O_0-2-3-16 (-135,) energy =    -495.6163914
N           1.2212216    -0.7948878    -0.5418169
H           1.4249718    -0.3771965    -1.4388613
C           2.2833879    -1.1135168     0.2778145
N           3.4207584    -0.3244366     0.0425548
H           3.2559777     0.4813020    -0.5488470
O           2.2269511    -1.9851582     1.1332005
C          -0.0306193    -1.5252229    -0.4208534
H          -0.0035231    -2.4940498    -0.9373917
H          -0.8439885    -0.9212849    -0.8333661
H          -0.2218727    -1.7114206     0.6368409
C           7.3964631    -1.7094375    -0.2976930
H           8.4224249    -2.0539903    -0.3894448
C           6.4780011    -2.4158826     0.4811522
H           6.7898497    -3.3168923     1.0032092
C           5.1598357    -1.9822608     0.6174035
H           4.4536116    -2.5187193     1.2376046
C           4.7406448    -0.8247307    -0.0560040
C           5.6623676    -0.1099772    -0.8361028
H           5.3447046     0.7929666    -1.3551412
C           6.9793641    -0.5493158    -0.9515844
H           7.6779658     0.0181627    -1.5609091
21
187_C8H10N2O_0-2-3-16 (-120,) energy =    -495.6129995
N           1.2860611    -0.8644156    -0.5716161
H           1.5576326    -0.4678265    -1.4595312
C           2.2530779    -1.0437173     0.3878769
N           3.3958797    -0.2315931     0.1990205
H           3.2269151     0.5631480    -0.4080120
O           2.1396197    -1.8329703     1.3130387
C           0.0368445    -1.6056066    -0.5130265
H           0.1217262    -2.6005131    -0.9697998
H          -0.7484366    -1.0420680    -1.0252905
H          -0.2370332    -1.7361987     0.5348464
C           7.2938742    -1.7590175    -0.3795373
H           8.2991188    -2.1420409    -0.5293708
C           6.3900931    -2.4412524     0.4377528
H           6.6928223    -3.3612307     0.9312631
C           5.0998654    -1.9572670     0.6479810
H           4.4057622    -2.4731235     1.3000238
C           4.6923038    -0.7748316     0.0121952
C           5.5988365    -0.0848316    -0.8060588
H           5.2914525     0.8378327    -1.2957596
C           6.8901069    -0.5737777    -0.9953076
H           7.5784781    -0.0251458    -1.6329494
21
187_C8H10N2O_0-2-3-16 (-105,) energy =    -495.6092736
N           1.3178417    -1.4463544    -0.5961832
H           1.5420360    -1.5208902    -1.5778548
C           2.1248256    -0.6502504     0.1530750
N           3.2216635    -0.1196960    -0.6415317
H           3.2637310     0.8790709    -0.4493587
O           1.9350352    -0.3599459     1.3210651
C           0.1282488    -2.0872312    -0.0667801
H           0.1322745    -3.1600767    -0.2880580
H          -0.7841053    -1.6433600    -0.4838577
H           0.1279491    -1.9406744     1.0141581
C           7.0904486    -1.7841458    -0.1937481
H           8.0853515    -2.2079135    -0.0937642
C           5.9611506    -2.6008360    -0.1146331
H           6.0729810    -3.6696156     0.0491056
C           4.6810503    -2.0648124    -0.2438176
H           3.8123203    -2.7137071    -0.1842507
C           4.5113163    -0.6870840    -0.4453655
C           5.6461013     0.1330518    -0.5223912
H           5.5250542     1.2029677    -0.6793481
C           6.9218046    -0.4139298    -0.4004476
H           7.7879559     0.2399111    -0.4614605
21
187_C8H10N2O_0-2-3-16 (-90,) energy =    -495.6115303
N           1.4011295    -1.4960972    -0.5662943
H           1.7107918    -1.6346592    -1.5173457
C           2.0684446    -0.5651781     0.1693799
N           3.2105028    -0.0360107    -0.5349823
H           3.2867483     0.9403995    -0.2603384
O           1.7113753    -0.1496288     1.2591384
C           0.1996214    -2.1579202    -0.0922239
H           0.2821052    -3.2446171    -0.2037141
H          -0.6883386    -1.8127066    -0.6361998
H           0.0807465    -1.9100767     0.9632805
C           7.0418836    -1.8254300    -0.2546044
H           8.0283788    -2.2755291    -0.1951760
C           5.8956905    -2.6135725    -0.1472153
H           5.9853274    -3.6868190     0.0003818
C           4.6243021    -2.0450914    -0.2226571
H           3.7443824    -2.6737349    -0.1326825
C           4.4823295    -0.6613529    -0.4024876
C           5.6359957     0.1304755    -0.5099607
H           5.5358026     1.2042763    -0.6535919
C           6.9005733    -0.4483034    -0.4370151
H           7.7799539     0.1851154    -0.5200208
21
187_C8H10N2O_0-2-3-16 (-75,) energy =    -495.6140819
N           1.5657345    -1.3952043    -0.4948630
H           1.9266344    -1.6035755    -1.4148696
C           2.1309631    -0.3495919     0.1755460
N           3.3314519     0.1312409    -0.4319815
H           3.4393858     1.0961243    -0.1324138
O           1.6271696     0.1980074     1.1438167
C           0.2863943    -1.9521856    -0.0917506
H           0.2356874    -3.0059853    -0.3802680
H          -0.5580912    -1.4165299    -0.5453390
H           0.1990676    -1.8688965     0.9925739
C           7.1017324    -1.7972344    -0.2965035
H           8.0747274    -2.2788477    -0.2719976
C           5.9371878    -2.5420949    -0.1121780
H           5.9986721    -3.6131372     0.0632564
C           4.6815069    -1.9341195    -0.1408141
H           3.7887094    -2.5290994     0.0167171
C           4.5757787    -0.5521669    -0.3560319
C           5.7492549     0.1964842    -0.5430393
H           5.6762523     1.2678383    -0.7173175
C           6.9962686    -0.4211868    -0.5108867
H           7.8903588     0.1799147    -0.6544680
21
187_C8H10N2O_0-2-3-16 (-60,) energy =    -495.6165204
N           1.6280713    -1.4505452    -0.4309796
H           2.0783875    -1.6958555    -1.3016317
C           2.0864494    -0.3376513     0.2205016
N           3.3290815     0.1484323    -0.2539491
H           3.4379509     1.0968525     0.0901087
O           1.4519663     0.2610157     1.0771304
C           0.2994000    -1.9744457    -0.1643123
H           0.2721877    -3.0417066    -0.4021819
H          -0.4759116    -1.4582223    -0.7463408
H           0.0783421    -1.8342935     0.8946591
C           7.0815793    -1.8096227    -0.3788446
H           8.0520011    -2.2953839    -0.4188908
C           5.9301288    -2.5462898    -0.1039965
H           6.0000427    -3.6153019     0.0803633
C           4.6776791    -1.9325855    -0.0472786
H           3.7982995    -2.5205524     0.1892141
C           4.5620225    -0.5529830    -0.2743517
C           5.7231995     0.1874212    -0.5537493
H           5.6406158     1.2559814    -0.7393564
C           6.9670014    -0.4349781    -0.5992254
H           7.8511391     0.1599506    -0.8128167
21
187_C8H10N2O_0-2-3-16 (-45,) energy =    -495.6184661
N           1.6540378    -1.5133662    -0.3594701
H           2.1924260    -1.7957672    -1.1670875
C           2.0192641    -0.3467219     0.2627533
N           3.2932832     0.1432902    -0.0759459
H           3.3878443     1.0827064     0.2926414
O           1.2790901     0.2863818     1.0039316
C           0.2910197    -2.0050673    -0.2417503
H           0.2722347    -3.0750832    -0.4670090
H          -0.4024104    -1.4842850    -0.9160088
H          -0.0491257    -1.8457965     0.7823466
C           7.0323815    -1.8008187    -0.4477322
H           8.0002897    -2.2827132    -0.5490913
C           5.9089969    -2.5386646    -0.0772946
H           5.9993595    -3.6032698     0.1227605
C           4.6601513    -1.9299550     0.0608773
H           3.8053479    -2.5144211     0.3808674
C           4.5190484    -0.5559194    -0.1872587
C           5.6527325     0.1853759    -0.5626380
H           5.5480870     1.2487905    -0.7646717
C           6.8946206    -0.4305249    -0.6829033
H           7.7577986     0.1641472    -0.9701110
21
187_C8H10N2O_0-2-3-16 (-30,) energy =    -495.6197199
N           1.6981099    -1.5422066    -0.2938193
H           2.3089447    -1.8637706    -1.0327201
C           2.0037030    -0.3386169     0.2945393
N           3.3066017     0.1300641     0.0905341
H           3.3926857     1.0749717     0.4431651
O           1.1932548     0.3313992     0.9223229
C           0.3172718    -1.9984511    -0.3155133
H           0.2982271    -3.0759951    -0.5014871
H          -0.2829895    -1.4910952    -1.0831353
H          -0.1326114    -1.7921795     0.6564399
C           7.0110487    -1.8098001    -0.5241574
H           7.9703297    -2.2926623    -0.6852658
C           5.9158162    -2.5462066    -0.0739744
H           6.0207403    -3.6086549     0.1303109
C           4.6795072    -1.9359546     0.1439669
H           3.8497914    -2.5154105     0.5322358
C           4.5193399    -0.5642011    -0.1103603
C           5.6252960     0.1749494    -0.5642370
H           5.5057891     1.2362609    -0.7684646
C           6.8578059    -0.4412307    -0.7593944
H           7.6998992     0.1511414    -1.1074448
21
187_C8H10N2O_0-2-3-16 (-15,) energy =    -495.6203470
N           1.7277222    -1.5554124    -0.2242279
H           2.3948697    -1.9239830    -0.8890752
C           1.9991204    -0.3202831     0.3171674
N           3.3248538     0.1115250     0.2437383
H           3.4051327     1.0777151     0.5315316
O           1.1453798     0.3952963     0.8270088
C           0.3418798    -1.9742140    -0.3701691
H           0.3079041    -3.0599298    -0.4973696
H          -0.1575363    -1.4969055    -1.2245097
H          -0.2007564    -1.6998800     0.5351653
C           6.9886299    -1.8167355    -0.5909173
H           7.9376836    -2.2984281    -0.8068394
C           5.9229276    -2.5533374    -0.0744447
H           6.0422714    -3.6146233     0.1276302
C           4.7017108    -1.9428439     0.2151802
H           3.8989249    -2.5181408     0.6625655
C           4.5239300    -0.5722802    -0.0371431
C           5.6012161     0.1673347    -0.5546760
H           5.4692600     1.2281024    -0.7539970
C           6.8210546    -0.4486611    -0.8190376
H           7.6413331     0.1431927    -1.2164545
21
187_C8H10N2O_0-2-3-16 (0,) energy =    -495.6204942
N           1.8184844    -1.3370973     0.0298187
H           2.5217745    -0.8678917     0.5849868
C           2.0879997    -1.5111104    -1.3077265
N           3.4319375    -1.4595852    -1.6870234
H           3.5177632    -1.4212201    -2.6939281
O           1.2222369    -1.7194065    -2.1491622
C           0.4339794    -1.1919734     0.4544399
H           0.0228547    -0.1978119     0.2312849
H           0.3713790    -1.3708423     1.5315390
H          -0.1701381    -1.9332766    -0.0698533
C           7.0134081    -0.8545379     0.4665458
H           7.9409230    -0.6975717     1.0091900
C           5.9899060    -1.6215036     1.0235105
H           6.1222474    -2.0785735     2.0006869
C           4.7989967    -1.8381893     0.3291727
H           4.0332497    -2.4825692     0.7475471
C           4.6055695    -1.2563130    -0.9351694
C           5.6409955    -0.4891709    -1.4948709
H           5.4982746    -0.0372812    -2.4735655
C           6.8342627    -0.2996725    -0.8028627
H           7.6233108     0.2955604    -1.2546752
21
187_C8H10N2O_0-2-3-16 (15,) energy =    -495.6203474
N           1.7968714    -1.2747805     0.0277303
H           2.4488551    -0.7140486     0.5601361
C           2.0903682    -1.4868205    -1.2993800
N           3.4192854    -1.2905535    -1.6799838
H           3.5145959    -1.3268391    -2.6861628
O           1.2527004    -1.8127843    -2.1317979
C           0.4042480    -1.2560415     0.4491291
H          -0.1048952    -0.3178693     0.1888892
H           0.3566547    -1.3999585     1.5322273
H          -0.1197275    -2.0738955    -0.0467972
C           7.0482074    -0.9163307     0.4481578
H           7.9884318    -0.8152132     0.9821106
C           5.9830546    -1.6138724     1.0173019
H           6.0941839    -2.0727463     1.9963271
C           4.7732802    -1.7577118     0.3363353
H           3.9716335    -2.3447434     0.7703132
C           4.6062508    -1.1737942    -0.9304936
C           5.6830068    -0.4743274    -1.5021306
H           5.5593151    -0.0184151    -2.4815259
C           6.8917361    -0.3563251    -0.8221419
H           7.7118609     0.1866708    -1.2843527
21
187_C8H10N2O_0-2-3-16 (30,) energy =    -495.6197199
N           1.7662975    -1.2043646     0.0318594
H           2.3613330    -0.5609752     0.5363221
C           2.0943786    -1.4695199    -1.2759028
N           3.3987498    -1.1379958    -1.6599900
H           3.5006839    -1.2424021    -2.6616485
O           1.3014310    -1.9206345    -2.0929610
C           0.3803236    -1.3151934     0.4586997
H          -0.2275059    -0.4547171     0.1471282
H           0.3463798    -1.4007996     1.5484434
H          -0.0505579    -2.2125456     0.0128694
C           7.0717208    -0.9788542     0.4251444
H           8.0230285    -0.9309104     0.9467255
C           5.9760176    -1.6126009     1.0102013
H           6.0727734    -2.0740723     1.9895994
C           4.7500160    -1.6873739     0.3471067
H           3.9204694    -2.2185767     0.7994597
C           4.6005503    -1.1010121    -0.9201273
C           5.7069465    -0.4628683    -1.5067696
H           5.5956034    -0.0019295    -2.4852952
C           6.9294475    -0.4116748    -0.8436611
H           7.7721518     0.0839798    -1.3183620
21
187_C8H10N2O_0-2-3-16 (45,) energy =    -495.6184661
N           1.7215164    -1.1343025     0.0197303
H           2.2433124    -0.4155193     0.5023706
C           2.1093734    -1.4405568    -1.2598786
N           3.3829014    -0.9736140    -1.6314078
H           3.4935069    -1.0946640    -2.6316161
O           1.3881261    -2.0097083    -2.0685103
C           0.3551836    -1.3887421     0.4462348
H          -0.3439589    -0.6169774     0.0965920
H           0.3203608    -1.4339515     1.5383597
H           0.0347236    -2.3468956     0.0349929
C           7.0944391    -1.0503982     0.3976874
H           8.0553595    -1.0599860     0.9035353
C           5.9692971    -1.6076536     1.0036215
H           6.0514249    -2.0657840     1.9859367
C           4.7294434    -1.6056954     0.3617564
H           3.8736628    -2.0723470     0.8356298
C           4.5991374    -1.0244746    -0.9089346
C           5.7345327    -0.4614402    -1.5168308
H           5.6380844    -0.0018800    -2.4977091
C           6.9676374    -0.4826086    -0.8725577
H           7.8324189    -0.0450164    -1.3643558
21
187_C8H10N2O_0-2-3-16 (60,) energy =    -495.6165205
N           1.6951114    -1.0500264    -0.0240091
H           2.1278370    -0.2620650     0.4373653
C           2.1761408    -1.3961695    -1.2576532
N           3.4160544    -0.7990044    -1.5915794
H           3.5407372    -0.8934334    -2.5942114
O           1.5621241    -2.0839758    -2.0605734
C           0.3649949    -1.4564513     0.3962997
H          -0.4144236    -0.7777344     0.0245543
H           0.3199997    -1.4866064     1.4887128
H           0.1652707    -2.4524306    -0.0013338
C           7.1447591    -1.1189994     0.3896331
H           8.1091260    -1.1890965     0.8839698
C           5.9899390    -1.5835619     1.0178301
H           6.0512406    -2.0279043     2.0080148
C           4.7452374    -1.5012521     0.3913954
H           3.8634217    -1.8880770     0.8890967
C           4.6408803    -0.9386476    -0.8895521
C           5.8053919    -0.4686319    -1.5201006
H           5.7314161    -0.0233746    -2.5097308
C           7.0415251    -0.5640722    -0.8881529
H           7.9285206    -0.1975865    -1.3982395
21
187_C8H10N2O_0-2-3-16 (75,) energy =    -495.6140812
N           1.6323712    -0.9750119    -0.0626975
H           1.9753817    -0.1312767     0.3738039
C           2.2198224    -1.3551932    -1.2342780
N           3.4153915    -0.6311399    -1.5306014
H           3.5386303    -0.6786161    -2.5380499
O           1.7377734    -2.1623403    -2.0136124
C           0.3534774    -1.5211338     0.3564556
H          -0.4921922    -0.9624675    -0.0661076
H           0.2839906    -1.5004810     1.4477822
H           0.2869497    -2.5531498     0.0087807
C           7.1662986    -1.1952426     0.3574904
H           8.1342944    -1.3266872     0.8318093
C           5.9968643    -1.5744804     1.0159482
H           6.0495572    -2.0107913     2.0102041
C           4.7475370    -1.4111152     0.4162207
H           3.8509843    -1.7234912     0.9401658
C           4.6533336    -0.8592798    -0.8698172
C           5.8316910    -0.4763890    -1.5311471
H           5.7675051    -0.0412778    -2.5261660
C           7.0723077    -0.6456611    -0.9230212
H           7.9704336    -0.3452064    -1.4563429
21
187_C8H10N2O_0-2-3-16 (90,) energy =    -495.6115303
N           1.4657730    -0.9328601     0.0490762
H           1.7582127    -0.0424488     0.4248899
C           2.1552931    -1.4041560    -1.0259017
N           3.2914488    -0.5751368    -1.3457779
H           3.3829717    -0.5964269    -2.3585908
O           1.8207322    -2.3603356    -1.7052706
C           0.2648872    -1.5727305     0.5538699
H          -0.6280433    -0.9717820     0.3415082
H           0.3332170    -1.7342810     1.6352433
H           0.1663823    -2.5347433     0.0494143
C           7.1068873    -1.2429913     0.3736725
H           8.0891859    -1.3999381     0.8092767
C           5.9539613    -1.5586158     1.0931188
H           6.0341288    -1.9681458     2.0968798
C           4.6878713    -1.3603520     0.5426662
H           3.8026431    -1.6158296     1.1159454
C           4.5582831    -0.8428244    -0.7544842
C           5.7187196    -0.5261008    -1.4773678
H           5.6280672    -0.1204112    -2.4828104
C           6.9778459    -0.7246048    -0.9164219
H           7.8626999    -0.4746851    -1.4960709
21
187_C8H10N2O_0-2-3-16 (105,) energy =    -495.6092735
N           1.3825734    -0.8925896     0.0071363
H           1.5897777     0.0423041     0.3273509
C           2.2104655    -1.4088158    -0.9386414
N           3.2999475    -0.4926512    -1.2379954
H           3.3561982    -0.4289242    -2.2523971
O           2.0430444    -2.4697859    -1.5138030
C           0.1947486    -1.5806874     0.4780062
H          -0.7193397    -1.0784451     0.1380523
H           0.1828856    -1.6334335     1.5721018
H           0.2141398    -2.5910062     0.0671692
C           7.1568984    -1.2910019     0.3192321
H           8.1485544    -1.4805578     0.7193500
C           6.0200855    -1.5861151     1.0736343
H           6.1227563    -2.0098591     2.0693780
C           4.7440495    -1.3440003     0.5678898
H           3.8692842    -1.5749089     1.1685322
C           4.5862872    -0.8073200    -0.7184423
C           5.7286572    -0.5133006    -1.4766195
H           5.6168896    -0.0959619    -2.4752906
C           7.0000601    -0.7511907    -0.9585245
H           7.8722733    -0.5176722    -1.5636375
21
187_C8H10N2O_0-2-3-16 (120,) energy =    -495.6130013
N           1.3402938    -0.7815828    -0.5372294
H           1.6071886     0.1818133    -0.6802740
C           2.3214532    -1.7429177    -0.5911078
N           3.4663429    -1.3413694    -1.3191375
H           3.2916755    -0.5590030    -1.9405519
O           2.2166810    -2.8373256    -0.0594148
C           0.0923174    -1.0389411     0.1631254
H          -0.6980414    -0.4073489    -0.2528033
H           0.1734654    -0.8503597     1.2418420
H          -0.1715397    -2.0879160     0.0216387
C           7.3452321    -1.1017147     0.3429447
H           8.3455694    -1.0359254     0.7608580
C           6.4485218    -2.0704718     0.7984629
H           6.7521289    -2.7674875     1.5753688
C           5.1647284    -2.1734712     0.2649531
H           4.4772844    -2.9398843     0.6013105
C           4.7560387    -1.2765452    -0.7335523
C           5.6557474    -0.3051961    -1.1966023
H           5.3472002     0.3880271    -1.9774489
C           6.9406351    -0.2234785    -0.6630323
H           7.6235567     0.5360270    -1.0347940
21
187_C8H10N2O_0-2-3-16 (135,) energy =    -495.6163905
N           1.2720861    -0.7943787    -0.6039096
H           1.4637155     0.1802720    -0.7878566
C           2.3441066    -1.6535773    -0.4895330
N           3.4825612    -1.2145045    -1.1842018
H           3.3155134    -0.4469451    -1.8237347
O           2.2955409    -2.6997040     0.1413594
C           0.0165700    -1.1097472     0.0586786
H          -0.7976699    -0.5678782    -0.4309527
H           0.0288247    -0.8534792     1.1266032
H          -0.1612167    -2.1824560    -0.0290206
C           7.4457512    -1.1760699     0.2751364
H           8.4684911    -1.1591397     0.6404074
C           6.5339501    -2.1139312     0.7632254
H           6.8479165    -2.8358005     1.5128592
C           5.2200030    -2.1559532     0.2984949
H           4.5189247    -2.8961460     0.6615407
C           4.7982405    -1.2261622    -0.6641453
C           5.7134030    -0.2850093    -1.1599980
H           5.3939020     0.4344509    -1.9122608
C           7.0263481    -0.2645017    -0.6946891
H           7.7198566     0.4725903    -1.0910724
21
187_C8H10N2O_0-2-3-16 (150,) energy =    -495.6188472
N           1.2224107    -0.8133263    -0.6591392
H           1.3447085     0.1684403    -0.8668384
C           2.3597178    -1.5565233    -0.3996566
N           3.4934707    -1.0598631    -1.0444526
H           3.3294181    -0.3109300    -1.7046409
O           2.3501200    -2.5618932     0.2975606
C          -0.0302788    -1.1882215    -0.0209741
H          -0.8595046    -0.7190102    -0.5578504
H          -0.0724408    -0.8937558     1.0365028
H          -0.1372561    -2.2725541    -0.0733102
C           7.5223203    -1.2379497     0.2019621
H           8.5627239    -1.2735497     0.5118829
C           6.5923719    -2.1323143     0.7344788
H           6.9096575    -2.8731203     1.4639859
C           5.2540607    -2.1069915     0.3428947
H           4.5385564    -2.8115728     0.7444228
C           4.8279850    -1.1526531    -0.5939270
C           5.7619476    -0.2543193    -1.1341208
H           5.4379017     0.4846356    -1.8652822
C           7.0968129    -0.3000994    -0.7400049
H           7.8032543     0.4048597    -1.1704460
21
187_C8H10N2O_0-2-3-16 (165,) energy =    -495.6202692
N           1.1887473    -0.8237124    -0.6871524
H           1.2526634     0.1613465    -0.9077182
C           2.3604441    -1.4655436    -0.3176337
N           3.4918549    -0.8834701    -0.8778893
H           3.3340973    -0.1600695    -1.5662329
O           2.3726542    -2.4588922     0.3974523
C          -0.0672050    -1.2637577    -0.0978455
H          -0.8961478    -0.8692344    -0.6920861
H          -0.1853845    -0.9403599     0.9455534
H          -0.0990227    -2.3538318    -0.1185134
C           7.5683448    -1.3162884     0.1200427
H           8.6216464    -1.4143774     0.3663860
C           6.6199643    -2.1503642     0.7137716
H           6.9353750    -2.9066667     1.4280555
C           5.2634611    -2.0436623     0.4070736
H           4.5335679    -2.7004935     0.8591359
C           4.8394337    -1.0705111    -0.5116533
C           5.7923822    -0.2314165    -1.1122148
H           5.4697295     0.5237359    -1.8272992
C           7.1431890    -0.3559002    -0.7992279
H           7.8629879     0.3040677    -1.2763201
21
187_C8H10N2O_0-2-3-16 (180,) energy =    -495.6207541
N           1.1813910    -0.8410311    -0.7003731
H           1.1979683     0.1426256    -0.9371251
C           2.3639831    -1.3947491    -0.2318278
N           3.4893316    -0.7187181    -0.6872800
H           3.3368178    -0.0219572    -1.4038218
O           2.3901869    -2.3901526     0.4798424
C          -0.0809079    -1.3420230    -0.1759882
H          -0.8905121    -1.0339917    -0.8435281
H          -0.2950967    -0.9821722     0.8400461
H          -0.0359100    -2.4312099    -0.1463222
C           7.5908304    -1.3992989     0.0322827
H           8.6507157    -1.5587410     0.2082986
C           6.6370285    -2.1727359     0.6951316
H           6.9546510    -2.9428407     1.3934982
C           5.2713266    -1.9848387     0.4821343
H           4.5366029    -2.5930164     0.9903079
C           4.8445439    -0.9958104    -0.4181651
C           5.8029856    -0.2160316    -1.0864239
H           5.4785436     0.5538873    -1.7847988
C           7.1620000    -0.4176937    -0.8625281
H           7.8855034     0.1970523    -1.3915807
