21
187_C8H10N2O_6-0-2-3 (-165,) energy =    -495.6205085
N           1.1828610    -0.8979294    -0.7489794
H           1.2067091     0.0725512    -1.0365225
C           2.3677053    -1.4225665    -0.2488455
N           3.4882370    -0.7090383    -0.6571451
H           3.3389633     0.0035523    -1.3588919
O           2.4000896    -2.4161177     0.4647858
C          -0.0743204    -1.3269573    -0.1500586
H          -0.8937005    -1.1113536    -0.8416341
H          -0.2768796    -0.8362183     0.8123795
H          -0.0224455    -2.4025656     0.0199934
C           7.5927475    -1.4025294     0.0353793
H           8.6532047    -1.5644975     0.2055126
C           6.6417050    -2.1910991     0.6841298
H           6.9618631    -2.9752372     1.3655045
C           5.2751663    -1.9996853     0.4795707
H           4.5423110    -2.6173899     0.9786901
C           4.8450958    -0.9931039    -0.3993119
C           5.8007992    -0.1980106    -1.0531844
H           5.4739504     0.5857535    -1.7348766
C           7.1606445    -0.4021797    -0.8367940
H           7.8820384     0.2246473    -1.3544114
21
187_C8H10N2O_6-0-2-3 (-150,) energy =    -495.6187386
N           1.1808437    -1.0265441    -0.8566540
H           1.2275645    -0.1070683    -1.2802004
C           2.3695715    -1.4924978    -0.3002990
N           3.4756538    -0.7237123    -0.6398948
H           3.3223988     0.0357721    -1.2895819
O           2.4100560    -2.4728957     0.4303402
C          -0.0569299    -1.2635187    -0.1190723
H          -0.9086887    -1.1414191    -0.7940260
H          -0.1762586    -0.5850357     0.7377939
H          -0.0404547    -2.2889695     0.2508216
C           7.5882191    -1.3885396     0.0365433
H           8.6503388    -1.5425774     0.2036724
C           6.6465560    -2.2164668     0.6489276
H           6.9758334    -3.0229429     1.2991188
C           5.2779826    -2.0343472     0.4492709
H           4.5515862    -2.6778434     0.9246676
C           4.8371655    -0.9995122    -0.3902342
C           5.7831085    -0.1651153    -1.0077919
H           5.4471910     0.6398870    -1.6597283
C           7.1450811    -0.3583537    -0.7943771
H           7.8592863     0.2992020    -1.2829614
21
187_C8H10N2O_6-0-2-3 (-135,) energy =    -495.6154731
N           1.1765431    -1.1774565    -0.9283392
H           1.2543583    -0.3374779    -1.4917869
C           2.3728069    -1.5930413    -0.3349562
N           3.4576976    -0.7788990    -0.6311646
H           3.2855541     0.0154582    -1.2321783
O           2.4243260    -2.5585599     0.4133381
C          -0.0207924    -1.1722094    -0.0868798
H          -0.9091896    -1.1075048    -0.7213353
H          -0.0309989    -0.3399300     0.6320384
H          -0.0515983    -2.1123623     0.4651854
C           7.5827475    -1.3601002     0.0469120
H           8.6476570    -1.4928544     0.2145694
C           6.6604090    -2.2397157     0.6150646
H           7.0076646    -3.0649828     1.2313775
C           5.2885719    -2.0845096     0.4148941
H           4.5760079    -2.7638202     0.8606643
C           4.8258562    -1.0257212    -0.3814978
C           5.7518141    -0.1391555    -0.9544782
H           5.3985726     0.6844918    -1.5731197
C           7.1171702    -0.3052054    -0.7395699
H           7.8165004     0.3925231    -1.1925789
21
187_C8H10N2O_6-0-2-3 (-120,) energy =    -495.6111340
N           1.1620505    -1.3203893    -0.9748611
H           1.2680549    -0.5602348    -1.6403646
C           2.3777794    -1.7166586    -0.3867000
N           3.4381747    -0.8611393    -0.6475677
H           3.2385905    -0.0374043    -1.1979963
O           2.4501538    -2.6915816     0.3452491
C           0.0505014    -1.0639522    -0.0528681
H          -0.8790267    -0.9810391    -0.6230669
H           0.1888296    -0.1489481     0.5425663
H          -0.0343657    -1.9146758     0.6255288
C           7.5717903    -1.3138272     0.0719731
H           8.6384483    -1.4139258     0.2507682
C           6.6752371    -2.2461881     0.5955404
H           7.0443640    -3.0793628     1.1879814
C           5.3013910    -2.1333750     0.3811579
H           4.6076504    -2.8518655     0.7941187
C           4.8115872    -1.0645124    -0.3846836
C           5.7113729    -0.1252920    -0.9132488
H           5.3360531     0.7054952    -1.5088379
C           7.0788796    -0.2489067    -0.6838455
H           7.7583702     0.4892009    -1.1016239
21
187_C8H10N2O_6-0-2-3 (-105,) energy =    -495.6096436
N           1.1176999    -1.2969879    -1.0914822
H           0.6153297    -2.0952704    -1.4817139
C           2.3492073    -1.8537931    -0.5756734
N           3.3958218    -1.0118090    -0.8438910
H           3.1397395    -0.2012204    -1.3914525
O           2.4276848    -2.9372010    -0.0183683
C           0.2732396    -0.7498284    -0.0076317
H          -0.6679615    -0.3998033    -0.4409413
H           0.7773913     0.1102783     0.4445375
H           0.0567711    -1.4822582     0.7828924
C           7.4703671    -1.2070832     0.2150561
H           8.5231608    -1.2432881     0.4798026
C           6.6130229    -2.2454177     0.5814267
H           6.9989355    -3.0975828     1.1347931
C           5.2586944    -2.2180692     0.2482480
H           4.5957396    -3.0255894     0.5268691
C           4.7497837    -1.1227627    -0.4655735
C           5.6090258    -0.0764020    -0.8355363
H           5.2145203     0.7736767    -1.3888681
C           6.9586653    -0.1210382    -0.4976797
H           7.6096747     0.6975386    -0.7926852
21
187_C8H10N2O_6-0-2-3 (-90,) energy =    -495.6116965
N           1.0968021    -1.4229959    -1.0739825
H           0.5301555    -2.2418092    -1.2925307
C           2.3459693    -1.9554306    -0.6120421
N           3.3676958    -1.0669246    -0.8424006
H           3.0976699    -0.2473001    -1.3692100
O           2.4700224    -3.0761437    -0.1421536
C           0.3705112    -0.6451463    -0.0486325
H          -0.5830611    -0.3150975    -0.4701738
H           0.9486776     0.2458731     0.2147522
H           0.1767717    -1.2170288     0.8703692
C           7.4420769    -1.1739486     0.2324628
H           8.4941185    -1.1868860     0.5022716
C           6.6178314    -2.2552869     0.5467144
H           7.0291295    -3.1182084     1.0640118
C           5.2652980    -2.2590003     0.2054659
H           4.6300421    -3.1020037     0.4396505
C           4.7225270    -1.1506386    -0.4622149
C           5.5488905    -0.0611297    -0.7796944
H           5.1293779     0.7997672    -1.2969524
C           6.8976833    -0.0756918    -0.4357864
H           7.5221209     0.7763813    -0.6908151
21
187_C8H10N2O_6-0-2-3 (-75,) energy =    -495.6141105
N           1.0733926    -1.5429804    -1.0143923
H           0.4742654    -2.3625670    -1.0871210
C           2.3401587    -2.0415352    -0.6062717
N           3.3364724    -1.1111530    -0.8015391
H           3.0515307    -0.2760878    -1.2948532
O           2.5101419    -3.1879071    -0.2175985
C           0.4322873    -0.5588000    -0.1231699
H          -0.5318814    -0.2733737    -0.5530615
H           1.0461131     0.3441451    -0.0549596
H           0.2679171    -0.9396432     0.8953619
C           7.4247461    -1.1614696     0.2285564
H           8.4795451    -1.1583868     0.4876803
C           6.6333754    -2.2798200     0.4939115
H           7.0737321    -3.1563793     0.9620811
C           5.2780578    -2.3046555     0.1648017
H           4.6697480    -3.1769658     0.3591764
C           4.6968923    -1.1793755    -0.4397407
C           5.4905930    -0.0526501    -0.7078530
H           5.0425891     0.8220810    -1.1759459
C           6.8429374    -0.0467949    -0.3778640
H           7.4405981     0.8345292    -0.5949540
21
187_C8H10N2O_6-0-2-3 (-60,) energy =    -495.6162553
N           1.0528166    -1.6377665    -0.9335104
H           0.4428826    -2.4493539    -0.8920566
C           2.3360905    -2.0952565    -0.5716027
N           3.3068700    -1.1251060    -0.7124268
H           3.0089101    -0.2665182    -1.1542874
O           2.5469460    -3.2581492    -0.2559048
C           0.4559254    -0.5008325    -0.2199093
H          -0.5600011    -0.3535480    -0.5960188
H           1.0110751     0.4206031    -0.4209582
H           0.4118584    -0.6439501     0.8694843
C           7.4222802    -1.1694854     0.2089168
H           8.4832355    -1.1636225     0.4415289
C           6.6537059    -2.3126202     0.4322059
H           7.1184559    -3.2062195     0.8408512
C           5.2907858    -2.3414489     0.1363332
H           4.7004542    -3.2324011     0.2978892
C           4.6776684    -1.1947804    -0.3918504
C           5.4486231    -0.0429588    -0.6174300
H           4.9769731     0.8490513    -1.0262366
C           6.8087019    -0.0332213    -0.3211110
H           7.3874567     0.8681071    -0.5048577
21
187_C8H10N2O_6-0-2-3 (-45,) energy =    -495.6179680
N           1.0383847    -1.7104112    -0.8459912
H           0.4173393    -2.5019752    -0.7202324
C           2.3317329    -2.1383367    -0.5241562
N           3.2811895    -1.1384893    -0.6131158
H           2.9655193    -0.2487834    -0.9727845
O           2.5721615    -3.3103105    -0.2646687
C           0.4811819    -0.4569977    -0.3357331
H          -0.5900096    -0.4469280    -0.5516134
H           0.9122348     0.4095867    -0.8511165
H           0.6224678    -0.3228656     0.7461205
C           7.4249788    -1.1850704     0.1757816
H           8.4925715    -1.1792281     0.3757271
C           6.6769035    -2.3493252     0.3549130
H           7.1638117    -3.2592880     0.6961902
C           5.3055513    -2.3787828     0.1010318
H           4.7308132    -3.2847934     0.2309115
C           4.6625329    -1.2119451    -0.3405555
C           5.4134540    -0.0390899    -0.5218463
H           4.9194718     0.8687285    -0.8643732
C           6.7818853    -0.0279945    -0.2669488
H           7.3439118     0.8903294    -0.4152369
21
187_C8H10N2O_6-0-2-3 (-30,) energy =    -495.6190405
N           1.0337813    -1.7749422    -0.7448530
H           0.4006164    -2.5453810    -0.5737682
C           2.3345504    -2.1798476    -0.4617727
N           3.2651666    -1.1569583    -0.5111736
H           2.9315509    -0.2488129    -0.8010438
O           2.5992686    -3.3549521    -0.2386008
C           0.5032360    -0.4469498    -0.4647958
H          -0.5822663    -0.4775164    -0.5840595
H           0.8771369     0.2930578    -1.1846362
H           0.7302561    -0.0933487     0.5512473
C           7.4354431    -1.1949991     0.1292426
H           8.5093568    -1.1861880     0.2918421
C           6.7068573    -2.3770232     0.2672951
H           7.2157877    -3.2982696     0.5391721
C           5.3275121    -2.4101414     0.0612546
H           4.7665741    -3.3282364     0.1628261
C           4.6561797    -1.2289099    -0.2908818
C           5.3874316    -0.0379385    -0.4304336
H           4.8718899     0.8815061    -0.7034256
C           6.7638105    -0.0231679    -0.2229634
H           7.3097096     0.9096126    -0.3375714
21
187_C8H10N2O_6-0-2-3 (-15,) energy =    -495.6192595
N           0.9650457    -1.3521814     0.3083226
H           0.3309477    -1.4812766     1.0835298
C           2.2807160    -1.5212246     0.7033534
N           3.2128092    -1.1918763    -0.2677204
H           2.8591444    -0.9126806    -1.1713097
O           2.5570554    -1.9436975     1.8203767
C           0.4913339    -0.6089813    -0.8446751
H           0.8598372     0.4272146    -0.8704786
H          -0.6000775    -0.5783405    -0.8129513
H           0.7685318    -1.1041660    -1.7854302
C           7.4273062    -1.3955269    -0.2122420
H           8.5125763    -1.4402946    -0.2151778
C           6.7063399    -1.7392542     0.9319356
H           7.2325385    -2.0550374     1.8291956
C           5.3124337    -1.6891184     0.9567409
H           4.7561583    -1.9590786     1.8429812
C           4.6179931    -1.2843980    -0.1940350
C           5.3417807    -0.9379943    -1.3469412
H           4.8093332    -0.6228362    -2.2430697
C           6.7326320    -0.9938632    -1.3543235
H           7.2717346    -0.7218776    -2.2580238
21
187_C8H10N2O_6-0-2-3 (0,) energy =    -495.6191450
N           0.9868614    -1.1984702     0.3645953
H           0.3323845    -1.4449731     1.0913620
C           2.2954198    -1.4355137     0.7326461
N           3.2274990    -1.1178528    -0.2435832
H           2.8773417    -0.7641584    -1.1219877
O           2.5708889    -1.8880885     1.8385507
C           0.4917800    -0.6705997    -0.8900498
H           0.8703107     0.3414865    -1.0935626
H          -0.5971587    -0.6068139    -0.8352270
H           0.7408293    -1.3180011    -1.7434859
C           7.4358471    -1.4294143    -0.2297350
H           8.5195062    -1.5023903    -0.2436432
C           6.7139899    -1.8022995     0.9047376
H           7.2381740    -2.1693141     1.7835113
C           5.3221816    -1.7161476     0.9435248
H           4.7653328    -2.0064854     1.8229449
C           4.6302509    -1.2445217    -0.1831479
C           5.3550686    -0.8687358    -1.3262499
H           4.8244912    -0.5019857    -2.2036999
C           6.7438613    -0.9608071    -1.3476788
H           7.2834422    -0.6643936    -2.2433977
21
187_C8H10N2O_6-0-2-3 (15,) energy =    -495.6192597
N           0.9876900    -1.0342007     0.4288501
H           0.3381116    -1.3725158     1.1240349
C           2.2937340    -1.3358837     0.7735216
N           3.2226795    -1.0520607    -0.2147950
H           2.8805568    -0.6159740    -1.0587641
O           2.5669829    -1.7987831     1.8751857
C           0.4804975    -0.7594133    -0.9028255
H           0.8616642     0.1952591    -1.2906182
H          -0.6065038    -0.6671714    -0.8476777
H           0.7178767    -1.5532171    -1.6264880
C           7.4221016    -1.4661190    -0.2388951
H           8.5033445    -1.5668814    -0.2632318
C           6.6958749    -1.8797422     0.8785116
H           7.2141351    -2.3065983     1.7334216
C           5.3070534    -1.7587436     0.9302023
H           4.7471032    -2.0766889     1.7980211
C           4.6232316    -1.2086080    -0.1652666
C           5.3522872    -0.7915285    -1.2911299
H           4.8279768    -0.3641569    -2.1445465
C           6.7379579    -0.9194732    -1.3257956
H           7.2813451    -0.5893414    -2.2072839
21
187_C8H10N2O_6-0-2-3 (30,) energy =    -495.6190408
N           1.0114273    -0.9039998     0.4342952
H           0.3744877    -1.2693835     1.1304225
C           2.3133432    -1.2597751     0.7727710
N           3.2516474    -0.9458820    -0.1946207
H           2.9205698    -0.4444145    -1.0063936
O           2.5718394    -1.7626682     1.8595277
C           0.4970311    -0.8547701    -0.9281871
H           0.8665969     0.0298019    -1.4634835
H          -0.5903619    -0.7600718    -0.8825651
H           0.7424823    -1.7494015    -1.5183769
C           7.4324011    -1.5105855    -0.2618935
H           8.5091520    -1.6491843    -0.2965799
C           6.6962814    -1.9471463     0.8402044
H           7.2021214    -2.4297231     1.6725879
C           5.3131596    -1.7772153     0.9052928
H           4.7460506    -2.1108003     1.7625988
C           4.6458229    -1.1552875    -0.1614030
C           5.3846100    -0.7150876    -1.2718583
H           4.8723845    -0.2320753    -2.1025340
C           6.7646258    -0.8909570    -1.3194693
H           7.3164062    -0.5414936    -2.1881676
21
187_C8H10N2O_6-0-2-3 (45,) energy =    -495.6179681
N           1.0155862    -0.7914817     0.3937547
H           0.3900848    -1.1186225     1.1216485
C           2.3107866    -1.1890061     0.7457743
N           3.2670077    -0.8411004    -0.1889173
H           2.9528524    -0.2775805    -0.9663084
O           2.5457252    -1.7260931     1.8204874
C           0.4787090    -0.9849035    -0.9539328
H           0.9087625    -0.2656159    -1.6610653
H          -0.5959030    -0.7886748    -0.9245277
H           0.6398107    -1.9981237    -1.3486410
C           7.4236279    -1.5538634    -0.2841633
H           8.4946461    -1.7299643    -0.3250897
C           6.6684408    -2.0260898     0.7900378
H           7.1532386    -2.5739205     1.5940464
C           5.2925422    -1.8081855     0.8632010
H           4.7119274    -2.1662218     1.7015069
C           4.6523379    -1.1021311    -0.1671164
C           5.4103348    -0.6256043    -1.2491125
H           4.9185747    -0.0771802    -2.0509110
C           6.7831620    -0.8490875    -1.3047062
H           7.3506966    -0.4702610    -2.1506247
21
187_C8H10N2O_6-0-2-3 (60,) energy =    -495.6162553
N           1.0288764    -0.6881753     0.3449689
H           0.4126179    -0.9379509     1.1132461
C           2.3143629    -1.1321278     0.7157699
N           3.2910028    -0.7414054    -0.1769497
H           2.9927239    -0.1059287    -0.9038562
O           2.5205676    -1.7217929     1.7675398
C           0.4550472    -1.1081543    -0.9405112
H           1.0146275    -0.6774612    -1.7765910
H          -0.5661496    -0.7229037    -1.0037276
H           0.4293616    -2.1997140    -1.0710509
C           7.4218066    -1.5821312    -0.3075221
H           8.4867958    -1.7898448    -0.3567355
C           6.6472936    -2.0923648     0.7351250
H           7.1114066    -2.7017466     1.5063297
C           5.2790556    -1.8336458     0.8182635
H           4.6838586    -2.2190947     1.6340805
C           4.6666908    -1.0482514    -0.1706276
C           5.4436195    -0.5336181    -1.2210977
H           4.9725997     0.0754227    -1.9908177
C           6.8088553    -0.7975254    -1.2858821
H           7.3921613    -0.3881883    -2.1064370
21
187_C8H10N2O_6-0-2-3 (75,) energy =    -495.6141105
N           1.0488267    -0.5860986     0.2733348
H           0.4412487    -0.7270616     1.0776626
C           2.3182828    -1.0852109     0.6723128
N           3.3191137    -0.6511552    -0.1681124
H           3.0327281     0.0285711    -0.8593720
O           2.4850887    -1.7421327     1.6895439
C           0.4326441    -1.2165615    -0.9085025
H           1.0555732    -1.0504216    -1.7923019
H          -0.5365569    -0.7443257    -1.0916388
H           0.2833077    -2.2999692    -0.7927773
C           7.4246971    -1.5991494    -0.3201000
H           8.4839844    -1.8333322    -0.3732421
C           6.6283680    -2.1443714     0.6878587
H           7.0693174    -2.8075974     1.4275531
C           5.2671676    -1.8523410     0.7754222
H           4.6547611    -2.2652655     1.5648518
C           4.6851808    -0.9977479    -0.1734938
C           5.4838639    -0.4477518    -1.1888579
H           5.0352537     0.2148317    -1.9268992
C           6.8419394    -0.7453639    -1.2582844
H           7.4433691    -0.3083678    -2.0509858
21
187_C8H10N2O_6-0-2-3 (90,) energy =    -495.6116965
N           1.0722200    -0.4983880     0.1720643
H           0.4944928    -0.4973671     1.0120268
C           2.3247502    -1.0582789     0.5903755
N           3.3499846    -0.6001732    -0.2004888
H           3.0777681     0.1084239    -0.8683319
O           2.4473263    -1.7882621     1.5621171
C           0.3714595    -1.3110421    -0.8440160
H           0.9621493    -1.3375083    -1.7648572
H          -0.5866021    -0.8357239    -1.0723140
H           0.1892732    -2.3456060    -0.5190018
C           7.4419855    -1.6057492    -0.3087430
H           8.4985673    -1.8542791    -0.3490321
C           6.6139962    -2.1897199     0.6508607
H           7.0269005    -2.8976278     1.3648443
C           5.2555471    -1.8806738     0.7209849
H           4.6171764    -2.3253524     1.4718449
C           4.7106590    -0.9684895    -0.1954650
C           5.5407796    -0.3793418    -1.1621629
H           5.1196473     0.3279030    -1.8743024
C           6.8953748    -0.6955330    -1.2152817
H           7.5226333    -0.2285838    -1.9699311
21
187_C8H10N2O_6-0-2-3 (105,) energy =    -495.6096436
N           1.0939136    -0.4500153     0.0545501
H           0.5775356    -0.2765960     0.9177946
C           2.3295449    -1.0683871     0.4829576
N           3.3785672    -0.5846938    -0.2531625
H           3.1198393     0.1419960    -0.9069494
O           2.4084634    -1.8745643     1.3963965
C           0.2740203    -1.3780896    -0.7539556
H           0.7938434    -1.5962367    -1.6923612
H          -0.6717072    -0.8862475    -0.9985476
H           0.0653688    -2.3281364    -0.2419829
C           7.4696613    -1.5966275    -0.2719754
H           8.5266971    -1.8459855    -0.2884582
C           6.6099028    -2.2209904     0.6326742
H           6.9981710    -2.9615803     1.3270104
C           5.2500800    -1.9121237     0.6706856
H           4.5851328    -2.3915248     1.3758432
C           4.7380972    -0.9579366    -0.2212944
C           5.5997597    -0.3280833    -1.1328109
H           5.2028822     0.4118267    -1.8252456
C           6.9548258    -0.6458208    -1.1552849
H           7.6076325    -0.1479982    -1.8672718
21
187_C8H10N2O_6-0-2-3 (120,) energy =    -495.6111341
N           1.1401116    -0.5681295     0.0491080
H           1.2406984     0.2657831    -0.5222497
C           2.3627130    -1.2171861     0.3037808
N           3.4257564    -0.7370891    -0.4471630
H           3.2238350    -0.0028193    -1.1115663
O           2.4396772    -2.1659770     1.0688565
C           0.0476910    -1.4153233    -0.4411480
H           0.2051753    -1.7649538    -1.4725841
H          -0.8910686    -0.8563160    -0.3936662
H          -0.0328865    -2.2835139     0.2152836
C           7.5675307    -1.4827367    -0.1319931
H           8.6363156    -1.6643496    -0.0651947
C           6.6723602    -2.2339300     0.6306344
H           7.0447186    -3.0079843     1.2966763
C           5.2959206    -2.0193917     0.5562909
H           4.6034378    -2.6075067     1.1416338
C           4.8018265    -1.0209926    -0.2969224
C           5.7002098    -0.2632355    -1.0649302
H           5.3215592     0.5131594    -1.7279797
C           7.0704899    -0.4950677    -0.9838941
H           7.7488256     0.1023507    -1.5872187
21
187_C8H10N2O_6-0-2-3 (135,) energy =    -495.6154730
N           1.1684713    -0.5886791    -0.0936503
H           1.2398386     0.1732866    -0.7594573
C           2.3734072    -1.2443764     0.1770833
N           3.4596889    -0.7302436    -0.5179110
H           3.2816431     0.0462179    -1.1401437
O           2.4323023    -2.2115948     0.9226277
C          -0.0096910    -1.4235309    -0.3312232
H           0.0070515    -1.9110911    -1.3169449
H          -0.9106912    -0.8089043    -0.2515264
H          -0.0411662    -2.1939985     0.4401744
C           7.5915749    -1.4757351    -0.0889602
H           8.6582592    -1.6566841     0.0069516
C           6.6739654    -2.2538986     0.6179372
H           7.0269104    -3.0485784     1.2701731
C           5.2999636    -2.0400705     0.5061590
H           4.5911014    -2.6477148     1.0503789
C           4.8299450    -1.0154056    -0.3296585
C           5.7512199    -0.2307609    -1.0420142
H           5.3920716     0.5655729    -1.6922114
C           7.1189171    -0.4612902    -0.9230025
H           7.8143439     0.1579561    -1.4833918
21
187_C8H10N2O_6-0-2-3 (150,) energy =    -495.6187387
N           1.1689551    -0.6211175    -0.2560182
H           1.2142570     0.0274795    -1.0333015
C           2.3638876    -1.2581252     0.0686084
N           3.4700541    -0.7147510    -0.5724004
H           3.3105112     0.1019819    -1.1467145
O           2.4100825    -2.2143726     0.8303089
C          -0.0568377    -1.4141995    -0.2330163
H          -0.1559264    -2.0667246    -1.1123363
H          -0.9199829    -0.7443658    -0.1850197
H          -0.0406063    -2.0378506     0.6611100
C           7.5893362    -1.4715571    -0.0517175
H           8.6532167    -1.6550020     0.0677017
C           6.6533168    -2.2809299     0.5932195
H           6.9887944    -3.1025180     1.2209343
C           5.2826272    -2.0636614     0.4515974
H           4.5605282    -2.6924055     0.9525667
C           4.8337189    -1.0047891    -0.3529533
C           5.7739956    -0.1888589    -1.0031112
H           5.4321399     0.6337353    -1.6295102
C           7.1381988    -0.4220525    -0.8536516
H           7.8478663     0.2223672    -1.3657861
21
187_C8H10N2O_6-0-2-3 (165,) energy =    -495.6205096
N           1.1691924    -0.6823243    -0.4159364
H           1.1962435    -0.1635231    -1.2849172
C           2.3583672    -1.2773308    -0.0150173
N           3.4774626    -0.6885857    -0.5917506
H           3.3220746     0.1643533    -1.1121743
O           2.3951000    -2.2126208     0.7732200
C          -0.0802825    -1.3882063    -0.1634428
H          -0.2574169    -2.2079195    -0.8738930
H          -0.9108367    -0.6789523    -0.2202259
H          -0.0377570    -1.8105147     0.8407581
C           7.5874247    -1.4688737    -0.0371082
H           8.6493065    -1.6576347     0.0914906
C           6.6409352    -2.3069047     0.5537457
H           6.9663674    -3.1563017     1.1489379
C           5.2727175    -2.0820409     0.4009252
H           4.5433037    -2.7293925     0.8663902
C           4.8361519    -0.9877922    -0.3623514
C           5.7871742    -0.1430072    -0.9581181
H           5.4550864     0.7066284    -1.5528051
C           7.1487903    -0.3827178    -0.7960119
H           7.8664297     0.2849092    -1.2655983
21
187_C8H10N2O_6-0-2-3 (180,) energy =    -495.6205254
N           1.1844590    -0.7876684    -0.6334736
H           1.1953637     0.1970278    -0.8620900
C           2.3639473    -1.3635877    -0.1922116
N           3.4913275    -0.7205333    -0.6894369
H           3.3349849    -0.0339220    -1.4146417
O           2.3867141    -2.3598220     0.5189977
C          -0.0861608    -1.3465573    -0.2007889
H          -0.8720535    -1.0175666    -0.8866352
H          -0.3571637    -1.0532821     0.8229175
H          -0.0153821    -2.4345878    -0.2319495
C           7.5929403    -1.3965819     0.0305916
H           8.6528824    -1.5560707     0.2061656
C           6.6395718    -2.1609346     0.7045883
H           6.9573123    -2.9237990     1.4108356
C           5.2737642    -1.9738496     0.4919758
H           4.5392419    -2.5762951     1.0073374
C           4.8462138    -0.9937058    -0.4177866
C           5.8043785    -0.2230183    -1.0970320
H           5.4793746     0.5400002    -1.8026634
C           7.1636290    -0.4247828    -0.8746574
H           7.8868451     0.1827177    -1.4124463
