19
347_C8H9NO_0-3-15-16 (-165,) energy =    -440.1948575
C           1.0244314    -0.8021192     0.0175731
H           0.8135439     0.2344569    -0.2811208
H           0.4346442    -1.0417452     0.9105421
C           2.5204201    -1.1843814     0.0504343
H           2.7432759    -1.8706061     0.8745922
C           2.1840255    -1.9715199    -1.2397885
H           2.4189264    -3.0414546    -1.2404520
O           0.7697830    -1.7229696    -1.0651177
H           2.5735823    -1.5131611    -2.1583304
C           5.7327248     1.5950123    -0.1531429
H           6.6010721     2.2433841    -0.2201704
C           4.4691568     2.0986517     0.1448750
H           4.3213831     3.1609264     0.3211000
C           3.3903727     1.2170498     0.2148946
H           2.3962575     1.5844494     0.4481664
C           3.6110727    -0.1458525    -0.0139163
N           4.8332493    -0.6364883    -0.2928911
C           5.8559698     0.2198938    -0.3625538
H           6.8265665    -0.2163841    -0.5951505
19
347_C8H9NO_0-3-15-16 (-150,) energy =    -440.1953407
C           1.0232561    -0.7460003    -0.1115554
H           0.8775140     0.2674817    -0.5123597
H           0.3523374    -0.8922599     0.7438280
C           2.5010721    -1.1565569     0.0819480
H           2.6408112    -1.7484601     0.9942957
C           2.2476716    -2.0652960    -1.1415384
H           2.4333706    -3.1366983    -1.0081443
O           0.8335592    -1.7533032    -1.1270691
H           2.7391664    -1.7235766    -2.0608550
C           5.7241990     1.6040607    -0.1776353
H           6.5908754     2.2524530    -0.2634489
C           4.4991851     2.0828028     0.2827062
H           4.3823416     3.1244233     0.5702320
C           3.4215131     1.2026606     0.3674545
H           2.4550326     1.5463518     0.7240155
C           3.6038496    -0.1333516    -0.0105263
N           4.7858180    -0.5994797    -0.4503739
C           5.8099350     0.2562624    -0.5297916
H           6.7487128    -0.1586806    -0.8942129
19
347_C8H9NO_0-3-15-16 (-135,) energy =    -440.1955005
C           1.0249993    -0.7152542    -0.2597092
H           0.9436969     0.2687093    -0.7435014
H           0.2781854    -0.7838540     0.5412860
C           2.4720398    -1.1343727     0.1002199
H           2.5195997    -1.6279201     1.0785511
C           2.2990252    -2.1496602    -1.0485307
H           2.4256236    -3.2077668    -0.7929239
O           0.9026353    -1.7950201    -1.2066936
H           2.8915311    -1.9177104    -1.9406961
C           5.6978493     1.6220687    -0.1955118
H           6.5581153     2.2766768    -0.2971774
C           4.5212674     2.0554446     0.4152486
H           4.4378868     3.0659070     0.8067821
C           3.4507961     1.1701116     0.5130324
H           2.5203815     1.4756876     0.9839697
C           3.5886638    -0.1257978    -0.0037430
N           4.7203845    -0.5458834    -0.5913472
C           5.7416106     0.3148040    -0.6789879
H           6.6406492    -0.0636190    -1.1633213
19
347_C8H9NO_0-3-15-16 (-120,) energy =    -440.1954359
C           1.0346339    -0.6964739    -0.4232668
H           1.0268709     0.2305606    -1.0141028
H           0.2247476    -0.6583308     0.3162655
C           2.4371971    -1.1059929     0.1005963
H           2.3819158    -1.4943156     1.1245888
C           2.3291103    -2.2260266    -0.9527515
H           2.4132449    -3.2551873    -0.5851234
O           0.9553509    -1.8709060    -1.2533202
H           2.9918816    -2.0889281    -1.8134962
C           5.6776167     1.6357936    -0.2092533
H           6.5330657     2.2948936    -0.3218406
C           4.5629935     2.0119797     0.5416943
H           4.5253084     2.9799162     1.0346335
C           3.4973617     1.1237655     0.6486615
H           2.6150979     1.3831933     1.2282505
C           3.5733110    -0.1176404    -0.0016474
N           4.6440594    -0.4807799    -0.7230976
C           5.6647334     0.3816697    -0.8164925
H           6.5144636     0.0476108    -1.4100396
19
347_C8H9NO_0-3-15-16 (-105,) energy =    -440.1955287
C           1.0476107    -0.6902670    -0.5733349
H           1.1170398     0.1622129    -1.2637269
H           0.1869003    -0.5464952     0.0921073
C           2.3946753    -1.0694226     0.1040886
H           2.2419423    -1.3450401     1.1536009
C           2.3362949    -2.2894552    -0.8357644
H           2.3728996    -3.2756923    -0.3584619
O           0.9940056    -1.9497569    -1.2686944
H           3.0592611    -2.2466989    -1.6562378
C           5.6559449     1.6473210    -0.2323134
H           6.5092155     2.3066382    -0.3594413
C           4.6194104     1.9579723     0.6493932
H           4.6430737     2.8738699     1.2340791
C           3.5548769     1.0706322     0.7701375
H           2.7342644     1.2773018     1.4525178
C           3.5499915    -0.1032449    -0.0001291
N           4.5471125    -0.4041745    -0.8447370
C           5.5688446     0.4558012    -0.9491002
H           6.3579001     0.1714289    -1.6436595
19
347_C8H9NO_0-3-15-16 (-90,) energy =    -440.1960214
C           1.0644149    -0.6866845    -0.7484698
H           1.2154281     0.0875108    -1.5136401
H           0.1564217    -0.4590630    -0.1759046
C           2.3411598    -1.0162482     0.0770427
H           2.0912189    -1.1895182     1.1289739
C           2.3353774    -2.3184194    -0.7489587
H           2.3200557    -3.2556403    -0.1800711
O           1.0362334    -2.0102723    -1.3151090
H           3.1189086    -2.3544015    -1.5120916
C           5.6335393     1.6629869    -0.2491700
H           6.4893103     2.3181050    -0.3810593
C           4.6823665     1.8975758     0.7442754
H           4.7771362     2.7474571     1.4151034
C           3.6108829     1.0179337     0.8663657
H           2.8562473     1.1651266     1.6346503
C           3.5127748    -0.0701945    -0.0146797
N           4.4302383    -0.2986737    -0.9667769
C           5.4588999     0.5514870    -1.0719941
H           6.1812405     0.3270049    -1.8554770
19
347_C8H9NO_0-3-15-16 (-75,) energy =    -440.1967773
C           1.0969922    -0.7207781    -0.8895601
H           1.3227855    -0.0234303    -1.7076338
H           0.1452222    -0.4403461    -0.4210918
C           2.2943465    -0.9689659     0.0713115
H           1.9574543    -1.0457020     1.1097322
C           2.3496619    -2.3433192    -0.6311294
H           2.2819884    -3.2240284     0.0189146
O           1.1063642    -2.0923620    -1.3306876
H           3.1941139    -2.4455156    -1.3203640
C           5.6128572     1.6735286    -0.2593622
H           6.4716062     2.3229634    -0.3997400
C           4.7544023     1.8256718     0.8287764
H           4.9265372     2.6032042     1.5684233
C           3.6728562     0.9573681     0.9557875
H           2.9875606     1.0424425     1.7948786
C           3.4746619    -0.0361144    -0.0137850
N           4.3043195    -0.1856447    -1.0594208
C           5.3410935     0.6517530    -1.1694883
H           5.9894057     0.4943103    -2.0303255
19
347_C8H9NO_0-3-15-16 (-60,) energy =    -440.1974861
C           1.1327717    -0.7652638    -1.0162043
H           1.4328003    -0.1477947    -1.8724876
H           0.1429304    -0.4520685    -0.6613184
C           2.2400226    -0.9076524     0.0636949
H           1.8226137    -0.8933818     1.0747815
C           2.3584662    -2.3438880    -0.5018203
H           2.2405965    -3.1618057     0.2195870
O           1.1811338    -2.1735261    -1.3233484
H           3.2595558    -2.4997879    -1.1054894
C           5.6044341     1.6731351    -0.2628183
H           6.4729069     2.3086312    -0.4070242
C           4.8387397     1.7398529     0.8996388
H           5.0948237     2.4341756     1.6956378
C           3.7369056     0.8959105     1.0263997
H           3.1197687     0.9187544     1.9203719
C           3.4301340     0.0107143    -0.0155054
N           4.1702093    -0.0551867    -1.1356932
C           5.2249125     0.7576821    -1.2461023
H           5.7973318     0.6717716    -2.1687030
19
347_C8H9NO_0-3-15-16 (-45,) energy =    -440.1976434
C           1.1686737    -0.8219129    -1.1294097
H           1.5362340    -0.2869742    -2.0128635
H           0.1501103    -0.4936989    -0.8876216
C           2.1818766    -0.8388710     0.0441212
H           1.6922481    -0.7345237     1.0165587
C           2.3543622    -2.3263780    -0.3655036
H           2.1839512    -3.0712573     0.4218493
O           1.2517277    -2.2541840    -1.2927556
H           3.3046993    -2.5309219    -0.8737550
C           5.6034791     1.6673073    -0.2641507
H           6.4847668     2.2855482    -0.4056267
C           4.9230201     1.6368608     0.9514408
H           5.2605486     2.2358765     1.7931795
C           3.7972966     0.8234794     1.0699963
H           3.2422158     0.7760878     2.0028122
C           3.3850865     0.0622018    -0.0313933
N           4.0410593     0.0922865    -1.2044736
C           5.1183378     0.8756359    -1.3069412
H           5.6199308     0.8708802    -2.2736959
19
347_C8H9NO_0-3-15-16 (-30,) energy =    -440.1971219
C           1.2122880    -0.8796189    -1.2290397
H           1.6415018    -0.4324414    -2.1317519
H           0.1767962    -0.5433490    -1.0949179
C           2.1337172    -0.7647259     0.0087679
H           1.5791602    -0.5693245     0.9311103
C           2.3379273    -2.2890712    -0.2282565
H           2.1082675    -2.9487294     0.6181001
O           1.3131599    -2.3222246    -1.2395407
H           3.3259153    -2.5423792    -0.6349123
C           5.6081411     1.6754739    -0.2621262
H           6.5001185     2.2806779    -0.3925499
C           5.0053931     1.5261781     0.9858963
H           5.4164460     2.0164811     1.8644844
C           3.8598847     0.7397044     1.0873851
H           3.3612862     0.6055056     2.0434965
C           3.3515362     0.1191481    -0.0621739
N           3.9302192     0.2665038    -1.2657139
C           5.0277593     1.0247168    -1.3516902
H           5.4641227     1.1182364    -2.3451778
19
347_C8H9NO_0-3-15-16 (-15,) energy =    -440.1963015
C           1.2646026    -0.9556217    -1.3204079
H           1.7573486    -0.6029325    -2.2316756
H           0.2234484    -0.6118086    -1.2964238
C           2.0931402    -0.7108440    -0.0403053
H           1.4754216    -0.4207282     0.8152144
C           2.3013132    -2.2533799    -0.0928386
H           1.9994679    -2.8167460     0.7993285
O           1.3595452    -2.3931775    -1.1717354
H           3.3158112    -2.5549304    -0.3877873
C           5.6030581     1.6873193    -0.2660336
H           6.5006171     2.2871646    -0.3821816
C           5.0751929     1.4013974     0.9931214
H           5.5528920     1.7762979     1.8945255
C           3.9185766     0.6311710     1.0753057
H           3.4749436     0.3961302     2.0392506
C           3.3236640     0.1591891    -0.1046223
N           3.8283885     0.4390758    -1.3162886
C           4.9383981     1.1833535    -1.3832780
H           5.3122161     1.3881140    -2.3854607
19
347_C8H9NO_0-3-15-16 (0,) energy =    -440.1956566
C           1.3316948    -1.0363520    -1.3947190
H           1.8998657    -0.7874626    -2.2961517
H           0.2996023    -0.6795381    -1.4926355
C           2.0609859    -0.6715441    -0.0857925
H           1.3802365    -0.2874894     0.6815039
C           2.2401790    -2.2118914     0.0444051
H           1.8550040    -2.6738136     0.9624068
O           1.3847182    -2.4525295    -1.0874493
H           3.2680560    -2.5591131    -0.1313635
C           5.5841494     1.7124631    -0.2716860
H           6.4795582     2.3176993    -0.3757677
C           5.1365402     1.2829274     0.9785632
H           5.6772444     1.5469932     1.8836663
C           3.9796697     0.5132667     1.0469167
H           3.5977942     0.1681965     2.0043991
C           3.3029739     0.1850663    -0.1386795
N           3.7302328     0.6017301    -1.3396600
C           4.8425909     1.3457832    -1.3929042
H           5.1520446     1.6647732    -2.3871009
19
347_C8H9NO_0-3-15-16 (15,) energy =    -440.1954311
C           1.4261150    -1.1029711    -1.4573290
H           2.0743656    -0.9457791    -2.3253036
H           0.4147223    -0.7454551    -1.6827948
C           2.0436027    -0.6286419    -0.1272263
H           1.3037118    -0.1550306     0.5285833
C           2.1675555    -2.1480632     0.1708380
H           1.6781221    -2.5118706     1.0832452
O           1.4236479    -2.4844532    -1.0152238
H           3.1976537    -2.5304344     0.1374197
C           5.5763847     1.7428944    -0.2620680
H           6.4680745     2.3555758    -0.3537699
C           5.2083239     1.1700181     0.9563556
H           5.8099536     1.3255194     1.8480752
C           4.0539541     0.3954260     1.0100690
H           3.7354792    -0.0618274     1.9434637
C           3.2988815     0.2094675    -0.1586404
N           3.6505126     0.7607189    -1.3294470
C           4.7621240     1.5073647    -1.3678416
H           5.0104199     1.9374722    -2.3369959
19
347_C8H9NO_0-3-15-16 (30,) energy =    -440.1954891
C           1.5256262    -1.1843250    -1.5052112
H           2.2503568    -1.1145890    -2.3237715
H           0.5461425    -0.8387245    -1.8548158
C           2.0307537    -0.5978428    -0.1714380
H           1.2453364    -0.0445840     0.3576425
C           2.0854384    -2.0797229     0.2798395
H           1.4955809    -2.3477077     1.1655143
O           1.4579504    -2.5181827    -0.9409756
H           3.1026087    -2.4823577     0.3899621
C           5.5643552     1.7690153    -0.2689095
H           6.4489749     2.3929954    -0.3526173
C           5.2799371     1.0611401     0.8991435
H           5.9424956     1.1188396     1.7587654
C           4.1311461     0.2761220     0.9446483
H           3.8788537    -0.2875529     1.8389720
C           3.2978269     0.2207410    -0.1820638
N           3.5690423     0.9008591    -1.3067832
C           4.6764887     1.6526561    -1.3373438
H           4.8606660     2.1878833    -2.2677224
19
347_C8H9NO_0-3-15-16 (45,) energy =    -440.1954344
C           1.6192180    -1.2787363    -1.5206806
H           2.4141859    -1.2926098    -2.2757402
H           0.6817269    -0.9566403    -1.9877572
C           2.0143975    -0.5754901    -0.2031871
H           1.1963285     0.0402565     0.1891160
C           1.9945310    -2.0065903     0.3848155
H           1.3164067    -2.1829436     1.2290861
O           1.4785043    -2.5524136    -0.8460907
H           2.9853206    -2.4154901     0.6294583
C           5.5429253     1.7971345    -0.2668094
H           6.4196029     2.4331205    -0.3433392
C           5.3430862     0.9619843     0.8310766
H           6.0650186     0.9285516     1.6428684
C           4.2000470     0.1658091     0.8705919
H           4.0157123    -0.4939460     1.7135345
C           3.2889581     0.2301850    -0.1915371
N           3.4768624     1.0374642    -1.2493802
C           4.5789811     1.7946031    -1.2756635
H           4.6963322     2.4322712    -2.1507740
19
347_C8H9NO_0-3-15-16 (60,) energy =    -440.1949981
C           1.7224418    -1.3737080    -1.5308178
H           2.5942538    -1.5024054    -2.1852188
H           0.8607254    -1.0639607    -2.1322382
C           2.0106522    -0.5510095    -0.2510861
H           1.1702385     0.1089511    -0.0098732
C           1.8918640    -1.9181819     0.4603026
H           1.1494446    -1.9926382     1.2642065
O           1.4447391    -2.5602409    -0.7521562
H           2.8425305    -2.3429677     0.8124960
C           5.5346586     1.8298640    -0.2537330
H           6.4046562     2.4764903    -0.3160769
C           5.4101989     0.8705670     0.7481790
H           6.1864158     0.7472248     1.4989071
C           4.2705060     0.0669419     0.7750320
H           4.1481201    -0.6859905     1.5471158
C           3.2869757     0.2499410    -0.2038453
N           3.4003837     1.1826020    -1.1674663
C           4.4997125     1.9416009    -1.1842892
H           4.5551579     2.6804335    -1.9827225
19
347_C8H9NO_0-3-15-16 (75,) energy =    -440.1945456
C           1.5469522    -1.4260272     0.7312312
H           1.4585856    -0.5123554     1.3345250
H           1.5717000    -2.2978825     1.3942756
C           2.6409187    -1.3561805    -0.3673865
H           3.1513096    -2.3188657    -0.4648133
C           1.4354314    -1.2447984    -1.3272241
H           1.3804048    -1.9906431    -2.1293405
O           0.5019693    -1.5230063    -0.2616028
H           1.2630135    -0.2492109    -1.7586624
C           5.6731771     1.5853693     0.1413177
H           6.4767770     2.2899805     0.3328674
C           4.7160926     1.8205417    -0.8420273
H           4.7517396     2.7221931    -1.4478968
C           3.7064596     0.8787496    -1.0421418
H           2.9520838     1.0420007    -1.8043714
C           3.6871640    -0.2762085    -0.2518228
N           4.6175627    -0.5095590     0.6938099
C           5.5739444     0.4038902     0.8790046
H           6.3034862     0.1773112     1.6555136
19
347_C8H9NO_0-3-15-16 (90,) energy =    -440.1946001
C           1.4642649    -1.3037245     0.6873860
H           1.3443806    -0.3308350     1.1838424
H           1.4189773    -2.1021741     1.4366971
C           2.6481707    -1.3648060    -0.3176331
H           3.1494233    -2.3343608    -0.2644589
C           1.5264755    -1.3512364    -1.3801208
H           1.5256605    -2.1886110    -2.0883801
O           0.5011963    -1.4905035    -0.3726824
H           1.4126594    -0.4156187    -1.9441877
C           5.6999792     1.5688552     0.1239188
H           6.5114980     2.2700243     0.2934988
C           4.6392167     1.8729247    -0.7258663
H           4.5977943     2.8278766    -1.2432270
C           3.6262867     0.9317466    -0.9057011
H           2.7897121     1.1515269    -1.5605808
C           3.7069973    -0.2944372    -0.2332432
N           4.7329606    -0.5895828     0.5878684
C           5.6933420     0.3241096     0.7553809
H           6.5033489     0.0435856     1.4274299
19
347_C8H9NO_0-3-15-16 (105,) energy =    -440.1953317
C           1.4445862    -1.1907715     0.6656991
H           1.4676787    -0.2872807     1.2863894
H           1.1669570    -2.0530386     1.2862880
C           2.6825390    -1.4297643    -0.2458988
H           3.1791269    -2.3864687    -0.0723888
C           1.6312621    -1.4348949    -1.3781994
H           1.4514049    -2.4271442    -1.8137070
O           0.5721324    -1.0424752    -0.4775451
H           1.7725607    -0.7133345    -2.1919195
C           5.6934511     1.5645691     0.0289331
H           6.4978722     2.2842712     0.1469345
C           4.5287187     1.8812950    -0.6686297
H           4.3953349     2.8657320    -1.1095144
C           3.5327170     0.9151111    -0.7899232
H           2.6074250     1.1417025    -1.3105609
C           3.7338357    -0.3480427    -0.2146275
N           4.8500792    -0.6503036     0.4719030
C           5.7974256     0.2879327     0.5810755
H           6.6866542     0.0007446     1.1405961
19
347_C8H9NO_0-3-15-16 (120,) energy =    -440.1964004
C           1.3603559    -1.1179771     0.6074735
H           1.3603899    -0.2017508     1.2091055
H           0.9730991    -1.9514695     1.2091886
C           2.6719645    -1.4472673    -0.1578559
H           3.1455597    -2.3904132     0.1203193
C           1.7286980    -1.5040937    -1.3838451
H           1.5177141    -2.5232758    -1.7356963
O           0.6243168    -0.9580375    -0.6273224
H           1.9946200    -0.8745542    -2.2412363
C           5.6856766     1.5505258    -0.0088706
H           6.4941161     2.2718627     0.0629121
C           4.4517435     1.8923004    -0.5632601
H           4.2685675     2.8969872    -0.9352086
C           3.4548254     0.9235062    -0.6303307
H           2.4761806     1.1568601    -1.0404326
C           3.7227374    -0.3656028    -0.1433692
N           4.9055954    -0.6944761     0.4017801
C           5.8549557     0.2482959     0.4592106
H           6.8002425    -0.0582995     0.9047806
19
347_C8H9NO_0-3-15-16 (135,) energy =    -440.1967099
C           1.2915404    -1.0328322     0.5422002
H           1.2467278    -0.0842352     1.0898297
H           0.8394953    -1.8272568     1.1518284
C           2.6622876    -1.4165968    -0.0740742
H           3.1094257    -2.3396501     0.2983688
C           1.8291300    -1.5505760    -1.3771520
H           1.6310751    -2.5894711    -1.6747162
O           0.6728616    -0.9391988    -0.7610240
H           2.1819079    -0.9833111    -2.2462405
C           5.7068834     1.5530952    -0.0618764
H           6.5263903     2.2650624    -0.0383390
C           4.4255013     1.9315771    -0.4649972
H           4.2171267     2.9544188    -0.7677881
C           3.4155155     0.9746603    -0.4737620
H           2.4055313     1.2283901    -0.7843112
C           3.7164898    -0.3381576    -0.0766303
N           4.9488882    -0.7063617     0.3093459
C           5.9107735     0.2259783     0.3124209
H           6.8956664    -0.1111339     0.6324318
19
347_C8H9NO_0-3-15-16 (150,) energy =    -440.1960493
C           1.2143803    -0.9834422     0.4574766
H           1.1080451    -0.0050276     0.9406045
H           0.7123087    -1.7439186     1.0716094
C           2.6368502    -1.3911269     0.0036134
H           3.0545023    -2.2844817     0.4706939
C           1.9286050    -1.6244263    -1.3625787
H           1.7608328    -2.6835967    -1.6016461
O           0.7204684    -0.9800544    -0.8998089
H           2.3601147    -1.1166482    -2.2326065
C           5.7160014     1.5425960    -0.1046571
H           6.5482337     2.2397552    -0.1246802
C           4.4090207     1.9609498    -0.3550141
H           4.1926081     3.0013753    -0.5830160
C           3.3826592     1.0215428    -0.3118905
H           2.3567993     1.3084408    -0.5236340
C           3.6931929    -0.3139991    -0.0120742
N           4.9531459    -0.7229202     0.2135612
C           5.9293981     0.1921624     0.1686399
H           6.9351625    -0.1785575     0.3614185
19
347_C8H9NO_0-3-15-16 (165,) energy =    -440.1947998
C           1.1291698    -0.9586394     0.3502208
H           0.9405191     0.0639689     0.6978525
H           0.6104496    -1.6577724     1.0207498
C           2.5955625    -1.3537715     0.0622534
H           2.9764826    -2.1996279     0.6376878
C           2.0233840    -1.7395530    -1.3348657
H           1.9469834    -2.8219825    -1.5049964
O           0.7422741    -1.1487545    -1.0266411
H           2.4987451    -1.2669638    -2.2020862
C           5.7291961     1.5196893    -0.1448503
H           6.5790197     2.1930590    -0.2026134
C           4.4197686     1.9900668    -0.2221446
H           4.2167813     3.0503307    -0.3484288
C           3.3689634     1.0785386    -0.1384831
H           2.3418951     1.4197655    -0.2165015
C           3.6590662    -0.2825291     0.0290776
N           4.9231262    -0.7400451     0.0885694
C           5.9210122     0.1459736     0.0054189
H           6.9274929    -0.2664943     0.0625060
19
347_C8H9NO_0-3-15-16 (180,) energy =    -440.1945039
C           1.0462682    -0.9676351     0.1723089
H           0.7824842     0.0842080    -0.0044270
H           0.5481742    -1.3062127     1.0887039
C           2.5461376    -1.3110687     0.0387640
H           2.8510718    -2.0763806     0.7582119
C           2.1050748    -1.9691564    -1.2961518
H           2.3680373    -3.0236331    -1.4348634
O           0.7100036    -1.7904003    -0.9659178
H           2.3914725    -1.4010958    -2.1918862
C           5.7359136     1.4978825    -0.1630435
H           6.6009928     2.1510927    -0.2254166
C           4.4463743     2.0063285    -0.0323186
H           4.2735082     3.0784735     0.0118918
C           3.3736317     1.1177652     0.0428109
H           2.3612723     1.4936036     0.1457254
C           3.6245545    -0.2583526    -0.0103487
N           4.8722579    -0.7518931    -0.1289430
C           5.8889223     0.1106707    -0.2068523
H           6.8799945    -0.3306605    -0.3045122
