20
304_C8H9FO2_15-9-10-11 (-165,) energy =    -560.5149046
C           2.6403828    -2.9158000    -0.2958006
H           2.3807781    -2.8953720     0.7702369
H           3.6177149    -3.3938508    -0.4278699
H           1.8826455    -3.4816460    -0.8423880
O           2.6280924    -1.5984307    -0.8511438
C           5.2898884     1.1627565     0.7857402
H           5.9746152     1.8992494     1.1958235
C           3.9283258     1.2506018     1.0872317
H           3.5729253     2.0466308     1.7311262
C           3.0330491     0.3041755     0.5725166
O           1.6941194     0.2890514     0.8182682
C           1.1076830     1.4525215     1.3815052
H           0.0297621     1.2813580     1.3630061
H           1.3477470     2.3466933     0.7920692
H           1.4274026     1.6088576     2.4206291
C           3.5063930    -0.7207269    -0.2748376
C           4.8736794    -0.7749283    -0.5445996
F           5.3203668    -1.7673664    -1.3456159
C           5.7795339     0.1461648    -0.0304789
H           6.8313582     0.0563384    -0.2790018
20
304_C8H9FO2_15-9-10-11 (-150,) energy =    -560.5137223
C           2.6452680    -2.9236304    -0.2971469
H           2.4312238    -2.9478611     0.7788310
H           3.6203101    -3.3855061    -0.4896132
H           1.8699358    -3.4753302    -0.8333816
O           2.5971856    -1.5853531    -0.7981849
C           5.3052404     1.1468981     0.8137840
H           6.0016469     1.8772330     1.2150794
C           3.9589298     1.2084559     1.1784636
H           3.6202367     1.9769481     1.8644260
C           3.0507347     0.2670224     0.6774398
O           1.7258845     0.2356023     0.9975387
C           1.0960435     1.4675930     1.3240096
H           0.0223738     1.2696475     1.3041144
H           1.3416810     2.2455560     0.5905923
H           1.3726637     1.8174635     2.3276838
C           3.4913875    -0.7212227    -0.2273084
C           4.8477753    -0.7542879    -0.5570085
F           5.2663182    -1.7130547    -1.4124653
C           5.7662566     0.1598088    -0.0554516
H           6.8066395     0.0888342    -0.3535582
20
304_C8H9FO2_15-9-10-11 (-135,) energy =    -560.5123487
C           2.6327480    -2.8882855    -0.3081601
H           2.4373328    -2.9451613     0.7700105
H           3.6033963    -3.3454435    -0.5322175
H           1.8471436    -3.4216801    -0.8479037
O           2.5792160    -1.5348638    -0.7662675
C           5.3434356     1.1373557     0.8526777
H           6.0550077     1.8520472     1.2554256
C           4.0140191     1.1764512     1.2734470
H           3.6968682     1.9083717     2.0088399
C           3.0885826     0.2539134     0.7696442
O           1.7815054     0.2052457     1.1675436
C           1.0839521     1.4436445     1.2541658
H           0.0284089     1.1868871     1.3669348
H           1.2223699     2.0393009     0.3436369
H           1.3975456     2.0358468     2.1239520
C           3.4918601    -0.6936917    -0.1912542
C           4.8362123    -0.7107705    -0.5749330
F           5.2226704    -1.6341765    -1.4823927
C           5.7703069     0.1863958    -0.0746505
H           6.7984297     0.1306501    -0.4158465
20
304_C8H9FO2_15-9-10-11 (-120,) energy =    -560.5118141
C           2.5895972    -2.8514019    -0.3046083
H           2.4219074    -2.9438345     0.7756538
H           3.5491822    -3.3092427    -0.5705717
H           1.7846373    -3.3577463    -0.8417823
O           2.5380163    -1.4817394    -0.7130638
C           5.3826361     1.1019558     0.9153209
H           6.1176745     1.7886211     1.3245874
C           4.0670921     1.1390195     1.3750090
H           3.7753363     1.8362869     2.1541307
C           3.1155634     0.2504274     0.8600612
O           1.8289950     0.2011348     1.3321052
C           1.0543166     1.3859587     1.1645149
H           0.0705786     1.1671910     1.5854127
H           0.9492812     1.6397090     0.1020092
H           1.4886942     2.2419588     1.6968150
C           3.4781903    -0.6714262    -0.1381711
C           4.8117523    -0.6905585    -0.5627941
F           5.1624132    -1.5896610    -1.5084040
C           5.7685234     0.1790121    -0.0589791
H           6.7860284     0.1231671    -0.4308910
20
304_C8H9FO2_15-9-10-11 (-105,) energy =    -560.5121437
C           2.5675104    -2.7547929    -0.3290668
H           2.4326467    -2.8817109     0.7521434
H           3.5139346    -3.2113101    -0.6406394
H           1.7413242    -3.2352320    -0.8576925
O           2.5177494    -1.3710085    -0.6890607
C           5.4383822     1.1247242     0.9441508
H           6.1926117     1.7877963     1.3572477
C           4.1399278     1.1485388     1.4514201
H           3.8707113     1.8093588     2.2697812
C           3.1670575     0.2884771     0.9310613
O           1.9031217     0.2359283     1.4666428
C           1.0416182     1.3070481     1.0830699
H           0.1041187     1.1553500     1.6227037
H           0.8489672     1.2883401     0.0028569
H           1.4644312     2.2826622     1.3571018
C           3.4860494    -0.5920032    -0.1162711
C           4.8023701    -0.5980679    -0.5923502
F           5.1134062    -1.4572537    -1.5874483
C           5.7816268     0.2436124    -0.0839585
H           6.7849105     0.1988004    -0.4943175
20
304_C8H9FO2_15-9-10-11 (-90,) energy =    -560.5129376
C           2.5549832    -2.6831271    -0.3374499
H           2.4776327    -2.8536340     0.7432910
H           3.4782508    -3.1330331    -0.7190364
H           1.6963752    -3.1337990    -0.8398824
O           2.5002529    -1.2843679    -0.6362770
C           5.5147027     1.1160634     0.9712657
H           6.2922602     1.7545700     1.3796536
C           4.2293534     1.1533472     1.5117628
H           3.9880766     1.7983833     2.3509437
C           3.2277158     0.3261872     0.9958306
O           1.9837471     0.2918882     1.5787848
C           1.0305563     1.1833606     0.9978047
H           0.1155296     1.0795128     1.5855131
H           0.8275214     0.9161220    -0.0462675
H           1.3791234     2.2236595     1.0470732
C           3.5026428    -0.5359139    -0.0791951
C           4.8034199    -0.5514600    -0.5942029
F           5.0730006    -1.3918400    -1.6177884
C           5.8124528     0.2570865    -0.0888573
H           6.8032843     0.2041442    -0.5276666
20
304_C8H9FO2_15-9-10-11 (-75,) energy =    -560.5137549
C           2.5250867    -2.6125190    -0.3363691
H           2.5244723    -2.8293947     0.7387737
H           3.4151113    -3.0482666    -0.8022448
H           1.6292818    -3.0370855    -0.7946036
O           2.4578641    -1.2010318    -0.5698264
C           5.5814146     1.0893600     0.9965198
H           6.3886629     1.6928047     1.4006286
C           4.3067789     1.1689177     1.5569958
H           4.0992807     1.8167659     2.4025952
C           3.2636866     0.3887064     1.0494779
O           2.0378075     0.4170062     1.6657320
C           1.0055504     1.0890797     0.9373569
H           0.1107584     1.0348879     1.5616455
H           0.8151888     0.5992596    -0.0229508
H           1.2689346     2.1419306     0.7699066
C           3.4920559    -0.4750943    -0.0368495
C           4.7796333    -0.5220577    -0.5817127
F           5.0001773    -1.3548848    -1.6240361
C           5.8279268     0.2394544    -0.0833180
H           6.8068231     0.1593359    -0.5440577
20
304_C8H9FO2_15-9-10-11 (-60,) energy =    -560.5138088
C           2.4998949    -2.5493158    -0.3377684
H           2.5273036    -2.7770316     0.7348707
H           3.3749522    -2.9843408    -0.8310130
H           1.5901180    -2.9650971    -0.7761787
O           2.4330214    -1.1348533    -0.5561041
C           5.6226459     1.0531476     1.0341010
H           6.4501623     1.6212341     1.4484057
C           4.3515319     1.1692210     1.5931395
H           4.1644498     1.8162645     2.4438927
C           3.2758103     0.4383038     1.0753919
O           2.0642496     0.5485125     1.7044064
C           0.9581031     0.9921360     0.9098282
H           0.1119136     1.0647555     1.5966995
H           0.7303137     0.2868467     0.1075118
H           1.1633703     1.9827876     0.4831039
C           3.4765141    -0.4176218    -0.0243267
C           4.7610617    -0.4903178    -0.5755124
F           4.9485104    -1.3087246    -1.6360495
C           5.8378191     0.2210669    -0.0661311
H           6.8115503     0.1165795    -0.5325867
20
304_C8H9FO2_15-9-10-11 (-45,) energy =    -560.5133567
C           2.4825928    -2.4694477    -0.3791651
H           2.5141587    -2.7219864     0.6881052
H           3.3455943    -2.9101486    -0.8876964
H           1.5621837    -2.8593138    -0.8195997
O           2.4397986    -1.0498968    -0.5675871
C           5.6734538     1.0331387     1.0785294
H           6.5123742     1.5724269     1.5081042
C           4.4011145     1.1869074     1.6208695
H           4.2227375     1.8370394     2.4710281
C           3.3039276     0.4985095     1.0840774
O           2.1044710     0.6783870     1.7122936
C           0.9240767     0.8640458     0.9244915
H           0.1992282     1.3356605     1.5927963
H           0.5290257    -0.0831842     0.5520674
H           1.1207781     1.5275832     0.0742471
C           3.4929984    -0.3600182    -0.0160425
C           4.7827673    -0.4656820    -0.5529965
F           4.9554884    -1.2817198    -1.6184639
C           5.8765281     0.2043410    -0.0273134
H           6.8513548     0.0729937    -0.4842867
20
304_C8H9FO2_15-9-10-11 (-30,) energy =    -560.5131179
C           2.4267384    -2.3892171    -0.4094605
H           2.3988305    -2.6260059     0.6619432
H           3.2982740    -2.8661691    -0.8681871
H           1.5165499    -2.7573042    -0.8885190
O           2.4395650    -0.9728324    -0.6213137
C           5.7085050     1.0126383     1.0801613
H           6.5570773     1.5265456     1.5217508
C           4.4342958     1.2144187     1.5974990
H           4.2645655     1.8789319     2.4382267
C           3.3184027     0.5624649     1.0480628
O           2.1291882     0.8239268     1.6603363
C           0.8983731     0.7679166     0.9360516
H           0.1921769     1.3556360     1.5283308
H           0.5297056    -0.2559149     0.8347991
H           1.0005665     1.2099161    -0.0599818
C           3.4984051    -0.3109072    -0.0427619
C           4.7953528    -0.4655334    -0.5528145
F           4.9560647    -1.2959525    -1.6090944
C           5.9038353     0.1676201    -0.0153486
H           6.8810539    -0.0024222    -0.4537951
20
304_C8H9FO2_15-9-10-11 (-15,) energy =    -560.5127825
C           2.3804927    -2.3151966    -0.4556909
H           2.2844760    -2.5409015     0.6146126
H           3.2609635    -2.8239417    -0.8595189
H           1.4877057    -2.6603136    -0.9823368
O           2.4488842    -0.9026372    -0.6780634
C           5.7307965     1.0140380     1.0814233
H           6.5827081     1.5129033     1.5337014
C           4.4523022     1.2625204     1.5631902
H           4.2825740     1.9495493     2.3856193
C           3.3270433     0.6320666     1.0034602
O           2.1443841     0.9706098     1.5865737
C           0.8834842     0.6857949     0.9816601
H           0.1595723     1.2632802     1.5620176
H           0.6315464    -0.3771471     1.0420611
H           0.8559237     1.0016407    -0.0647255
C           3.5071466    -0.2676328    -0.0666716
C           4.8130510    -0.4723001    -0.5377133
F           4.9715103    -1.3263553    -1.5755523
C           5.9280155     0.1371999     0.0111414
H           6.9094162    -0.0720355    -0.3999175
20
304_C8H9FO2_15-9-10-11 (0,) energy =    -560.5126046
C           2.3571249    -2.2633787    -0.5108809
H           2.2139916    -2.4886840     0.5545106
H           3.2351488    -2.7991421    -0.8828300
H           1.4737592    -2.5787010    -1.0709479
O           2.4772067    -0.8533365    -0.7250194
C           5.7511417     1.0227025     1.0943845
H           6.6002173     1.5170251     1.5568295
C           4.4649596     1.3195552     1.5238283
H           4.2860085     2.0393907     2.3156811
C           3.3411199     0.6962590     0.9518896
O           2.1545490     1.1033825     1.4791978
C           0.8953819     0.6047812     1.0325192
H           0.1563302     1.1589451     1.6161623
H           0.7860485    -0.4656833     1.2375850
H           0.7395267     0.7854853    -0.0334797
C           3.5317193    -0.2454769    -0.0803553
C           4.8479449    -0.5032721    -0.4948240
F           5.0184497    -1.3933821    -1.5005312
C           5.9602583     0.0969743     0.0683824
H           6.9484223    -0.1537096    -0.3010554
20
304_C8H9FO2_15-9-10-11 (15,) energy =    -560.5126505
C           2.3118101    -2.2132826    -0.5820894
H           2.1420203    -2.4500231     0.4769346
H           3.1793134    -2.7702870    -0.9459973
H           1.4293221    -2.4922450    -1.1622802
O           2.4776212    -0.8042608    -0.7716086
C           5.7459132     1.0295641     1.0991937
H           6.5929105     1.5194104     1.5700840
C           4.4545832     1.3758706     1.4734962
H           4.2688284     2.1298993     2.2311958
C           3.3347459     0.7578040     0.8896941
O           2.1393005     1.2230592     1.3452852
C           0.9081800     0.5486728     1.0941966
H           0.1685858     1.0871309     1.6917280
H           0.9459603    -0.4952528     1.4272852
H           0.6311775     0.5824346     0.0386247
C           3.5319217    -0.2272917    -0.1005038
C           4.8536760    -0.5392261    -0.4559089
F           5.0366738    -1.4665362    -1.4257847
C           5.9622645     0.0538997     0.1224640
H           6.9547093    -0.2384557    -0.2022685
20
304_C8H9FO2_15-9-10-11 (30,) energy =    -560.5127775
C           2.3204501    -2.1856054    -0.6656565
H           2.1640249    -2.4425889     0.3904899
H           3.1696099    -2.7515849    -1.0567538
H           1.4222026    -2.4326369    -1.2358695
O           2.5111398    -0.7756162    -0.8261039
C           5.7442229     1.0404502     1.1187290
H           6.5813198     1.5305334     1.6067051
C           4.4444461     1.4234584     1.4261617
H           4.2417531     2.2070746     2.1486568
C           3.3416227     0.8025615     0.8177819
O           2.1264650     1.3028918     1.1785820
C           0.9521658     0.4930768     1.1424905
H           0.2132194     1.0348812     1.7381308
H           1.1307636    -0.4879276     1.6003099
H           0.5828693     0.3571065     0.1241555
C           3.5584079    -0.2184895    -0.1311026
C           4.8862177    -0.5710292    -0.4161415
F           5.0963350    -1.5309054    -1.3486194
C           5.9799374     0.0237525     0.1902512
H           6.9791908    -0.2994671    -0.0801423
20
304_C8H9FO2_15-9-10-11 (45,) energy =    -560.5126770
C           2.3270308    -2.1041724    -0.7643859
H           2.1801691    -2.3938993     0.2844592
H           3.1676344    -2.6626559    -1.1828760
H           1.4207806    -2.3257758    -1.3321446
O           2.5245623    -0.6900878    -0.8802651
C           5.7267760     1.0829528     1.1500503
H           6.5545033     1.5638038     1.6624733
C           4.4217163     1.4911539     1.4059931
H           4.2049909     2.2876170     2.1101473
C           3.3370075     0.8784286     0.7636014
O           2.1032524     1.3954030     1.0372056
C           0.9976367     0.5123793     1.2319566
H           0.2539773     1.0899598     1.7869229
H           1.2904120    -0.3613495     1.8282839
H           0.5749908     0.1800838     0.2812049
C           3.5688639    -0.1546349    -0.1683153
C           4.8983647    -0.5337817    -0.4013375
F           5.1329236    -1.5037986    -1.3177830
C           5.9771415     0.0524475     0.2419211
H           6.9803349    -0.2899092     0.0121081
20
304_C8H9FO2_15-9-10-11 (60,) energy =    -560.5124174
C           2.3900076    -2.1842837    -0.9635998
H           2.6884150    -2.7173288    -0.0531433
H           3.0183211    -2.5095461    -1.7957175
H           1.3430844    -2.4026314    -1.1865454
O           2.4542952    -0.7662718    -0.7774155
C           5.6630985     1.0646824     1.1910167
H           6.4848221     1.5648225     1.6941852
C           4.3586287     1.5283610     1.3509197
H           4.1348356     2.3895342     1.9719253
C           3.2897018     0.8904557     0.7162341
O           2.0440723     1.4395020     0.8720879
C           1.0141940     0.6025553     1.4028282
H           0.1861653     1.2714928     1.6488317
H           1.3533391     0.0974141     2.3168841
H           0.6834275    -0.1412893     0.6738055
C           3.5209737    -0.2296785    -0.1133515
C           4.8464604    -0.6622270    -0.2546400
F           5.1085959    -1.7149299    -1.0702019
C           5.9122135    -0.0469674     0.3879434
H           6.9119547    -0.4381072     0.2316622
20
304_C8H9FO2_15-9-10-11 (75,) energy =    -560.5123398
C           2.5035224    -2.2053767    -1.1320116
H           2.8512381    -2.8358630    -0.3058386
H           3.1331623    -2.3774871    -2.0082026
H           1.4671308    -2.4544947    -1.3699237
O           2.4802708    -0.8249605    -0.7600585
C           5.6356940     1.0822581     1.2230439
H           6.4379953     1.6014769     1.7378456
C           4.3214189     1.5400670     1.3241070
H           4.0708215     2.4208399     1.9065372
C           3.2866615     0.8749777     0.6681936
O           2.0161664     1.3928881     0.7343461
C           1.0928063     0.6550362     1.5362846
H           0.1560014     1.2165213     1.5131163
H           1.4466119     0.5809437     2.5734759
H           0.9255761    -0.3489950     1.1327244
C           3.5476110    -0.2692826    -0.1201720
C           4.8805720    -0.6923042    -0.2083247
F           5.1937947    -1.7649549    -0.9810090
C           5.9163179    -0.0452754     0.4554264
H           6.9237191    -0.4317919     0.3412953
20
304_C8H9FO2_15-9-10-11 (90,) energy =    -560.5116529
C           2.5424840    -2.2409868    -1.2154078
H           2.8852129    -2.8704463    -0.3861702
H           3.1882102    -2.4021306    -2.0821849
H           1.5133913    -2.5030545    -1.4705093
O           2.4943500    -0.8632381    -0.8383427
C           5.5765936     1.0454901     1.2527462
H           6.3586791     1.5627998     1.7995717
C           4.2568139     1.4946911     1.3176536
H           3.9839738     2.3688013     1.9007166
C           3.2510527     0.8311407     0.6174226
O           1.9655414     1.3189071     0.6301850
C           1.1262126     0.7534240     1.6354970
H           0.1602328     1.2561086     1.5475852
H           1.5366468     0.9252284     2.6398503
H           0.9898134    -0.3240702     1.4796266
C           3.5425184    -0.2998526    -0.1774563
C           4.8818505    -0.7085254    -0.2363442
F           5.2274749    -1.7666177    -1.0150569
C           5.8899046    -0.0642862     0.4714339
H           6.9042763    -0.4386274     0.3804945
20
304_C8H9FO2_15-9-10-11 (105,) energy =    -560.5108905
C           2.6392816    -2.2965853    -1.2497355
H           2.9592842    -2.9041678    -0.3950686
H           3.3150226    -2.4721208    -2.0905146
H           1.6215386    -2.5746811    -1.5323956
O           2.5674339    -0.9116698    -0.9050624
C           5.5399621     1.0059978     1.3310630
H           6.2943524     1.5234418     1.9154423
C           4.2096970     1.4241455     1.3715265
H           3.9075824     2.2765089     1.9724719
C           3.2376393     0.7602749     0.6231413
O           1.9350478     1.1990885     0.6111057
C           1.1729103     0.8483171     1.7629146
H           0.1851422     1.2941868     1.6254695
H           1.6240057     1.2429328     2.6833544
H           1.0702890    -0.2412169     1.8541689
C           3.5772004    -0.3390827    -0.1954590
C           4.9287767    -0.7105643    -0.2339951
F           5.3168291    -1.7344607    -1.0370567
C           5.9019711    -0.0696991     0.5226998
H           6.9276022    -0.4154922     0.4465332
20
304_C8H9FO2_15-9-10-11 (120,) energy =    -560.5106267
C           2.6724623    -2.3070586    -1.3042223
H           2.9463249    -2.8753298    -0.4070578
H           3.3801450    -2.5347561    -2.1054117
H           1.6630594    -2.5858290    -1.6153402
O           2.6120194    -0.9054884    -1.0303754
C           5.4865611     0.9685461     1.3604122
H           6.2189672     1.4741945     1.9820919
C           4.1461005     1.3508229     1.4055339
H           3.8243235     2.1610081     2.0523132
C           3.1982024     0.7033072     0.6095766
O           1.8791067     1.0826174     0.5960034
C           1.1809891     0.9527135     1.8308011
H           0.1563936     1.2765271     1.6350648
H           1.6108531     1.5846379     2.6187718
H           1.1751811    -0.0902346     2.1741080
C           3.5817762    -0.3399014    -0.2608157
C           4.9432767    -0.6711011    -0.3029026
F           5.3588789    -1.6402993    -1.1565314
C           5.8912105    -0.0506705     0.5000846
H           6.9268121    -0.3642644     0.4214784
20
304_C8H9FO2_15-9-10-11 (135,) energy =    -560.5115340
C           2.5442203    -2.2027161    -1.1487852
H           2.1337002    -2.4522759    -0.1615582
H           3.4551955    -2.7846156    -1.3242177
H           1.8061545    -2.4413559    -1.9175841
O           2.7890584    -0.7989988    -1.2608854
C           5.4981389     0.8699135     1.4420995
H           6.1996215     1.3176963     2.1396939
C           4.1449257     1.1998999     1.5168220
H           3.7970622     1.9050290     2.2643346
C           3.2292357     0.6313719     0.6227681
O           1.8921792     0.9193675     0.6337245
C           1.2458506     0.9337664     1.9019098
H           0.1741114     0.9577590     1.6925730
H           1.5080563     1.8213748     2.4925964
H           1.4883238     0.0338748     2.4813273
C           3.6728198    -0.2825629    -0.3534255
C           5.0402286    -0.5722379    -0.4077418
F           5.4682864    -1.4410852    -1.3516297
C           5.9599477    -0.0236583     0.4757472
H           7.0071422    -0.2924356     0.3880356
20
304_C8H9FO2_15-9-10-11 (150,) energy =    -560.5132441
C           2.5519653    -2.2164611    -1.1737391
H           2.1218035    -2.4659242    -0.1951219
H           3.4670885    -2.7978663    -1.3314484
H           1.8298159    -2.4554590    -1.9575214
O           2.8008733    -0.8131190    -1.2808259
C           5.4658054     0.8286885     1.4786230
H           6.1555914     1.2690919     2.1924688
C           4.1015638     1.1092084     1.5781054
H           3.7412954     1.7645629     2.3632582
C           3.1997909     0.5505680     0.6636228
O           1.8530365     0.7648160     0.6892834
C           1.2528502     1.0265633     1.9508988
H           0.1763680     0.9269142     1.7967343
H           1.4652762     2.0441981     2.3048653
H           1.5867298     0.3059391     2.7082906
C           3.6704222    -0.3053706    -0.3535794
C           5.0432793    -0.5501755    -0.4250323
F           5.4901043    -1.3700767    -1.4025720
C           5.9519933    -0.0069580     0.4750630
H           7.0066592    -0.2381299     0.3723800
20
304_C8H9FO2_15-9-10-11 (165,) energy =    -560.5146895
C           2.6013093    -2.8598967    -0.2812600
H           2.2632604    -2.7531896     0.7574458
H           3.5687922    -3.3743003    -0.3021353
H           1.8677839    -3.4430712    -0.8424395
O           2.6753012    -1.5879728    -0.9291731
C           5.2921100     1.2008882     0.7355721
H           5.9680551     1.9386533     1.1577583
C           3.9138832     1.3556918     0.9060608
H           3.5358519     2.2088673     1.4570807
C           3.0294929     0.4125945     0.3669954
O           1.6737604     0.4637168     0.4853674
C           1.1244519     1.3492027     1.4492073
H           0.0550681     1.1318371     1.4773925
H           1.2674053     2.4005445     1.1660413
H           1.5606320     1.1814518     2.4426436
C           3.5347074    -0.6940662    -0.3483703
C           4.9166257    -0.8080370    -0.4984811
F           5.3934160    -1.8742287    -1.1782905
C           5.8097112     0.1154603     0.0333526
H           6.8747589    -0.0265124    -0.1137804
20
304_C8H9FO2_15-9-10-11 (180,) energy =    -560.5152953
C           2.6221588    -2.8943636    -0.2904446
H           2.3249438    -2.8316580     0.7641263
H           3.5956657    -3.3914345    -0.3695593
H           1.8753579    -3.4683431    -0.8435663
O           2.6508944    -1.5980592    -0.8925129
C           5.2847307     1.1779968     0.7616215
H           5.9619016     1.9168920     1.1798026
C           3.9122181     1.3000108     0.9963099
H           3.5433213     2.1254332     1.5934497
C           3.0242041     0.3542646     0.4680642
O           1.6748602     0.3669255     0.6452755
C           1.1146273     1.4136505     1.4217256
H           0.0390698     1.2287875     1.4371841
H           1.3072875     2.3969515     0.9726763
H           1.4993191     1.4054790     2.4502852
C           3.5195046    -0.7120665    -0.3135013
C           4.8955485    -0.7958599    -0.5213987
F           5.3612865    -1.8258091    -1.2620039
C           5.7937431     0.1272829     0.0031189
H           6.8540719     0.0120513    -0.1932911
