19
296_C8H10O_0-4-14-9 (-165,) energy =    -386.0892942
C           1.7727585    -1.5440184    -0.4995956
H           2.0402453    -1.5592149    -1.5648953
H           0.7021320    -1.7349632    -0.4007380
H           2.3354016    -2.3292897     0.0220879
O           1.9982944    -0.2712615     0.0833012
C           5.8667643     1.1363076     0.6957139
H           6.8639101     1.5274780     0.8762298
C           4.7599214     1.7232785     1.3176306
H           4.9031678     2.5706813     1.9845624
C           3.4647376     1.2470212     1.1148228
C           2.2679782     1.8720332     1.7861123
H           2.5747259     2.6903509     2.4447825
H           1.7157210     1.1362560     2.3825933
H           1.5582333     2.2706460     1.0511370
C           3.2929628     0.1478337     0.2469576
C           4.3904159    -0.4520539    -0.3766407
H           4.2539303    -1.2989559    -1.0400402
C           5.6765027     0.0482210    -0.1500661
H           6.5244033    -0.4223298    -0.6409041
19
296_C8H10O_0-4-14-9 (-150,) energy =    -386.0878993
C           1.7626081    -1.5520881    -0.4298456
H           2.0409651    -1.7577359    -1.4723746
H           0.6887187    -1.7168256    -0.3158095
H           2.3132219    -2.2358761     0.2286709
O           1.9936952    -0.1967719    -0.0744066
C           5.8693660     1.1042398     0.7133444
H           6.8695173     1.4645679     0.9367731
C           4.7601226     1.6815292     1.3383783
H           4.9050391     2.4890664     2.0527188
C           3.4602060     1.2405850     1.0833828
C           2.2609292     1.8532251     1.7619161
H           2.5694225     2.6189481     2.4803538
H           1.6739801     1.0955320     2.2940796
H           1.5823091     2.3179195     1.0365415
C           3.2895561     0.1950250     0.1535977
C           4.3902576    -0.3972056    -0.4712589
H           4.2467245    -1.2062009    -1.1799424
C           5.6797677     0.0626285    -0.1907022
H           6.5307556    -0.3997796    -0.6838804
19
296_C8H10O_0-4-14-9 (-135,) energy =    -386.0861881
C           1.7431163    -1.5361531    -0.3436084
H           2.1315811    -1.9578410    -1.2802263
H           0.6555980    -1.6422530    -0.3391739
H           2.1709041    -2.0907366     0.5011989
O           2.0062754    -0.1427342    -0.2309893
C           5.8687399     1.0878429     0.7298091
H           6.8663039     1.4284182     0.9927755
C           4.7516040     1.6412829     1.3602121
H           4.8874786     2.4101370     2.1176804
C           3.4532960     1.2229652     1.0548480
C           2.2445871     1.8123584     1.7380737
H           2.5439327     2.5383938     2.5003339
H           1.6394934     1.0358253     2.2202229
H           1.5862822     2.3190545     1.0225562
C           3.2975338     0.2300498     0.0691466
C           4.4069635    -0.3346532    -0.5650658
H           4.2664579    -1.0992480    -1.3228823
C           5.6930527     0.0966730    -0.2337081
H           6.5520167    -0.3435384    -0.7332593
19
296_C8H10O_0-4-14-9 (-120,) energy =    -386.0851255
C           1.7223886    -1.4920071    -0.2437141
H           2.3287748    -2.1251893    -0.9044046
H           0.6716413    -1.5906710    -0.5266035
H           1.8558090    -1.8328259     0.7918457
O           2.0446529    -0.1115979    -0.3781542
C           5.8804166     1.0774698     0.7364929
H           6.8729431     1.4065457     1.0315829
C           4.7539907     1.5935766     1.3799073
H           4.8767414     2.3236901     2.1769007
C           3.4603584     1.1891496     1.0315171
C           2.2391595     1.7456223     1.7212867
H           2.5246808     2.4406905     2.5169671
H           1.6292796     0.9501476     2.1650956
H           1.5903190     2.2787646     1.0168364
C           3.3252986     0.2485542    -0.0043089
C           4.4443307    -0.2700852    -0.6599180
H           4.3086669    -0.9813255    -1.4696478
C           5.7237879     0.1430012    -0.2869392
H           6.5921099    -0.2601374    -0.8012607
19
296_C8H10O_0-4-14-9 (-105,) energy =    -386.0847070
C           1.6961158    -1.4137292    -0.1657479
H           2.3697629    -2.1748595    -0.5819151
H           0.6944319    -1.5561827    -0.5785694
H           1.6604261    -1.5355298     0.9257413
O           2.1012282    -0.0975475    -0.5301980
C           5.9030447     1.0534297     0.7301148
H           6.8893683     1.3703262     1.0577992
C           4.7656814     1.5321695     1.3831507
H           4.8743229     2.2216526     2.2175176
C           3.4785664     1.1453701     0.9914027
C           2.2443418     1.6675587     1.6855436
H           2.5115388     2.3870610     2.4656733
H           1.6702383     0.8600360     2.1562666
H           1.5688246     2.1602340     0.9776934
C           3.3654288     0.2607972    -0.0941645
C           4.4948560    -0.2178536    -0.7603137
H           4.3634099    -0.8838915    -1.6086313
C           5.7675884     0.1765942    -0.3464120
H           6.6459282    -0.1938458    -0.8681687
19
296_C8H10O_0-4-14-9 (-90,) energy =    -386.0843709
C           1.6370248    -1.3275612    -0.0991576
H           2.3017957    -2.1794137    -0.2978103
H           0.6724152    -1.5013916    -0.5824292
H           1.4874909    -1.2433298     0.9856407
O           2.1584755    -0.1244525    -0.6565363
C           5.9015057     1.0488872     0.7541076
H           6.8751390     1.3689683     1.1150788
C           4.7434477     1.4745452     1.4066478
H           4.8236798     2.1293552     2.2717521
C           3.4701409     1.0861608     0.9716957
C           2.2192587     1.5626182     1.6697227
H           2.4260051     2.4479733     2.2791520
H           1.8072416     0.7954605     2.3390491
H           1.4363183     1.8102725     0.9465675
C           3.3945355     0.2516690    -0.1569774
C           4.5458514    -0.1720494    -0.8229693
H           4.4365011    -0.8005670    -1.7022071
C           5.8030885     0.2251126    -0.3676644
H           6.6978648    -0.1029057    -0.8898567
19
296_C8H10O_0-4-14-9 (-75,) energy =    -386.0837140
C           1.5692109    -1.2305241    -0.0571698
H           2.2028622    -2.1260974     0.0014120
H           0.6695719    -1.4620471    -0.6327601
H           1.2779034    -0.9363777     0.9583809
O           2.2316599    -0.1805795    -0.7560943
C           5.9165207     1.0518395     0.7597866
H           6.8783899     1.3795417     1.1445678
C           4.7419902     1.4210818     1.4152847
H           4.7976238     2.0448357     2.3050791
C           3.4805169     1.0243497     0.9518676
C           2.2215144     1.4796001     1.6510093
H           2.3847344     2.4373354     2.1558553
H           1.8913388     0.7646038     2.4166662
H           1.3999107     1.6012337     0.9386458
C           3.4344904     0.2318506    -0.2096589
C           4.6051663    -0.1346750    -0.8783737
H           4.5170195    -0.7365779    -1.7780011
C           5.8475552     0.2760351    -0.3980816
H           6.7542635    -0.0092249    -0.9247744
19
296_C8H10O_0-4-14-9 (-60,) energy =    -386.0822540
C           1.4945433    -1.1593757    -0.0236582
H           2.0997303    -1.9348544     0.4641236
H           0.8022171    -1.6336371    -0.7240918
H           0.9146026    -0.6269991     0.7374958
O           2.3086004    -0.2898554    -0.8052168
C           5.9390221     1.0731797     0.7343772
H           6.8911008     1.4253146     1.1215962
C           4.7566530     1.3812108     1.4054310
H           4.7956576     1.9859267     2.3091232
C           3.5033094     0.9549853     0.9431934
C           2.2464823     1.3914681     1.6601032
H           2.4415734     2.2876106     2.2577080
H           1.8636759     0.6238939     2.3453298
H           1.4470688     1.6266630     0.9495770
C           3.4740685     0.1844510    -0.2351046
C           4.6554684    -0.1183924    -0.9201867
H           4.5805262    -0.7088449    -1.8282660
C           5.8858287     0.3279086    -0.4440822
H           6.7962765     0.0870468    -0.9863057
19
296_C8H10O_0-4-14-9 (-45,) energy =    -386.0809212
C           1.4516829    -1.0832205     0.0011418
H           1.9360227    -1.6418712     0.8119566
H           0.9381026    -1.7884711    -0.6582708
H           0.7103698    -0.3989660     0.4266968
O           2.4092096    -0.4139543    -0.8111762
C           5.9746553     1.1243274     0.7126477
H           6.9147206     1.5137523     1.0930869
C           4.7873035     1.3738959     1.3971527
H           4.8102652     1.9732561     2.3048389
C           3.5443908     0.9008834     0.9487277
C           2.2893813     1.3109524     1.6885729
H           2.5175038     2.1172548     2.3924443
H           1.8430730     0.4931282     2.2668252
H           1.5221947     1.6810228     0.9991580
C           3.5340227     0.1328777    -0.2334217
C           4.7229823    -0.1103849    -0.9328702
H           4.6626316    -0.7033675    -1.8402926
C           5.9375937     0.3869237    -0.4714492
H           6.8497377     0.1879018    -1.0276411
19
296_C8H10O_0-4-14-9 (-30,) energy =    -386.0794237
C           1.3877172    -1.0492606    -0.0076274
H           1.7299402    -1.5487608     0.9073240
H           0.8714046    -1.7799803    -0.6358699
H           0.6834704    -0.2532011     0.2536639
O           2.4796293    -0.5829690    -0.7863147
C           5.9642659     1.1800132     0.6798565
H           6.8888220     1.6201161     1.0422490
C           4.7734594     1.3875268     1.3701452
H           4.7795196     2.0051692     2.2656961
C           3.5437789     0.8510871     0.9523047
C           2.2967815     1.2456324     1.7196734
H           2.5520683     2.0008485     2.4692144
H           1.8263722     0.4113317     2.2510246
H           1.5384864     1.6860171     1.0623440
C           3.5550379     0.0569007    -0.2148218
C           4.7506905    -0.1450560    -0.9203225
H           4.7073657    -0.7626666    -1.8120956
C           5.9461585     0.4155454    -0.4872710
H           6.8587244     0.2436037    -1.0517502
19
296_C8H10O_0-4-14-9 (-15,) energy =    -386.0780580
C           1.3467658    -0.9975050    -0.0471125
H           1.5154353    -1.4656620     0.9302148
H           0.8107959    -1.7044567    -0.6854135
H           0.7305167    -0.1016281     0.0770766
O           2.5649743    -0.7364340    -0.7235577
C           5.9698189     1.2536662     0.6357594
H           6.8775228     1.7500595     0.9664219
C           4.7802549     1.4320196     1.3345526
H           4.7724774     2.0807798     2.2076951
C           3.5676634     0.8233890     0.9639671
C           2.3343974     1.1829263     1.7740851
H           2.6128478     1.8901028     2.5611749
H           1.8666269     0.3251719     2.2668533
H           1.5669371     1.6721577     1.1636543
C           3.5972171    -0.0136391    -0.1743090
C           4.7951547    -0.1901187    -0.8861494
H           4.7667803    -0.8436841    -1.7525334
C           5.9703854     0.4374135    -0.4957575
H           6.8811265     0.2807225    -1.0675502
19
296_C8H10O_0-4-14-9 (0,) energy =    -386.0774212
C           1.3061025    -0.9134445    -0.1197513
H           1.2755008    -1.2598726     0.9187120
H           0.7814145    -1.6399665    -0.7451926
H           0.7936751     0.0513675    -0.2010742
O           2.6252757    -0.8675406    -0.6352514
C           5.9592979     1.3236578     0.5834711
H           6.8481409     1.8775694     0.8711026
C           4.7736671     1.4846546     1.2925038
H           4.7529140     2.1715554     2.1357033
C           3.5835861     0.8028509     0.9791567
C           2.3757937     1.0886148     1.8559612
H           2.6459127     1.8375982     2.6063485
H           2.0255411     0.2059455     2.4013628
H           1.5252360     1.4920500     1.2977506
C           3.6306991    -0.0849946    -0.1199144
C           4.8273402    -0.2493296    -0.8381721
H           4.8127157    -0.9419474    -1.6740009
C           5.9814963     0.4419845    -0.4975023
H           6.8902582     0.2915111    -1.0741161
19
296_C8H10O_0-4-14-9 (15,) energy =    -386.0780581
C           1.2995586    -0.8274838    -0.1755317
H           1.0858840    -1.0496927     0.8745490
H           0.7668911    -1.5487020    -0.8005013
H           0.9399776     0.1798338    -0.4182183
O           2.6688557    -0.9912961    -0.5040737
C           5.9357140     1.3912909     0.5213527
H           6.8031694     2.0014491     0.7556168
C           4.7585015     1.5405995     1.2473360
H           4.7246508     2.2681453     2.0553300
C           3.5980157     0.7849269     1.0016494
C           2.4191720     0.9996472     1.9347557
H           2.6830176     1.7536585     2.6824218
H           2.1537906     0.0881038     2.4821065
H           1.5165431     1.3548147     1.4282262
C           3.6623015    -0.1566793    -0.0501358
C           4.8518824    -0.3147744    -0.7801817
H           4.8502189    -1.0499905    -1.5789351
C           5.9815847     0.4419781    -0.5001212
H           6.8869793     0.2960399    -1.0831745
19
296_C8H10O_0-4-14-9 (30,) energy =    -386.0794237
C           1.3535708    -0.9076166    -0.2031392
H           0.7472464    -0.5184911     0.6208142
H           0.8796548    -1.8148117    -0.5873516
H           1.3966252    -0.1632008    -1.0079648
O           2.6528777    -1.3037105     0.2103400
C           5.9590901     1.2015003     0.6500331
H           6.8377850     1.8323763     0.7485897
C           4.6937243     1.7192066     0.9115849
H           4.5990840     2.7557800     1.2279521
C           3.5185999     0.9558309     0.8076049
C           2.2122782     1.5972691     1.2337551
H           2.4121445     2.5831440     1.6643804
H           1.7020925     1.0060791     2.0026744
H           1.5060129     1.7435601     0.4094586
C           3.6620928    -0.3884699     0.4010247
C           4.9364228    -0.9177433     0.1479347
H           4.9944090    -1.9568238    -0.1611416
C           6.0791769    -0.1378565     0.2777059
H           7.0547338    -0.5718545     0.0754401
19
296_C8H10O_0-4-14-9 (45,) energy =    -386.0809212
C           1.4075781    -0.9001779    -0.2516121
H           0.7107290    -0.4005828     0.4293082
H           0.9473959    -1.8276440    -0.6037583
H           1.6009468    -0.2490302    -1.1134191
O           2.6181580    -1.2830966     0.3906532
C           5.9527079     1.2155439     0.5864223
H           6.8340541     1.8491951     0.6291238
C           4.6987717     1.7421510     0.8880254
H           4.6146939     2.7867954     1.1800927
C           3.5280582     0.9688544     0.8548672
C           2.2227153     1.5884304     1.3051804
H           2.4149805     2.5440525     1.8025926
H           1.6997763     0.9429675     2.0198360
H           1.5317788     1.7876793     0.4773460
C           3.6583739    -0.3843932     0.4818310
C           4.9182234    -0.9225975     0.1900359
H           4.9673434    -1.9709697    -0.0877928
C           6.0627651    -0.1338511     0.2484229
H           7.0316728    -0.5690394     0.0186517
19
296_C8H10O_0-4-14-9 (60,) energy =    -386.0822540
C           1.4419728    -0.9411780    -0.3249994
H           0.8004488    -0.1524974     0.0818683
H           0.8566202    -1.8603887    -0.4102100
H           1.7886843    -0.6420606    -1.3229320
O           2.5402347    -1.2533264     0.5270408
C           5.9053141     1.2132983     0.5405255
H           6.7906483     1.8430313     0.5438611
C           4.6686557     1.7472768     0.8993239
H           4.6017642     2.7925483     1.1939345
C           3.4985877     0.9747072     0.9160430
C           2.2009186     1.5812602     1.3979556
H           2.3998010     2.4618978     2.0169763
H           1.6298766     0.8668942     2.0002997
H           1.5551975     1.9068197     0.5719400
C           3.6094855    -0.3788360     0.5437703
C           4.8491946    -0.9243417     0.1940525
H           4.8848419    -1.9748628    -0.0779644
C           5.9973225    -0.1360277     0.1971903
H           6.9546891    -0.5721458    -0.0751808
19
296_C8H10O_0-4-14-9 (75,) energy =    -386.0837140
C           1.5097118    -0.9835273    -0.3983524
H           1.0500009     0.0110381    -0.3511192
H           0.7365033    -1.7408172    -0.2469644
H           1.9604294    -1.1186947    -1.3911168
O           2.4730073    -1.1843767     0.6319093
C           5.8745350     1.2263599     0.5183944
H           6.7658582     1.8474426     0.4974917
C           4.6588094     1.7670986     0.9369077
H           4.6140827     2.8083342     1.2495204
C           3.4859769     1.0017341     0.9832463
C           2.1932360     1.5975110     1.4882300
H           2.3922396     2.4067207     2.1984023
H           1.5828859     0.8407713     1.9903329
H           1.5885964     2.0236438     0.6762647
C           3.5734363    -0.3460783     0.5894557
C           4.7888586    -0.8988609     0.1781358
H           4.8080749    -1.9473872    -0.1040173
C           5.9418377    -0.1163113     0.1442368
H           6.8849420    -0.5530594    -0.1731032
19
296_C8H10O_0-4-14-9 (90,) energy =    -386.0843709
C           1.5685707    -1.0433253    -0.4918365
H           1.1955831    -0.0298367    -0.6917455
H           0.7216002    -1.7063376    -0.2987149
H           2.1138915    -1.3987245    -1.3769083
O           2.3894766    -1.0851981     0.6719559
C           5.8608967     1.2176832     0.5206398
H           6.7676253     1.8160066     0.4968431
C           4.6708052     1.7767461     0.9888500
H           4.6602857     2.8091117     1.3319664
C           3.4815787     1.0386969     1.0374348
C           2.2003240     1.6416680     1.5606672
H           2.4060040     2.5316849     2.1636327
H           1.6499648     0.9222725     2.1745534
H           1.5301574     1.9478205     0.7461526
C           3.5264523    -0.2970188     0.6017247
C           4.7133914    -0.8690679     0.1406965
H           4.7033519    -1.9107285    -0.1673511
C           5.8840380    -0.1118029     0.0980346
H           6.8077386    -0.5602480    -0.2577454
19
296_C8H10O_0-4-14-9 (105,) energy =    -386.0847070
C           1.6263069    -1.1238940    -0.5661735
H           1.3278406    -0.1529915    -0.9853680
H           0.7330162    -1.7170642    -0.3557790
H           2.2435679    -1.6507975    -1.3062251
O           2.3105287    -0.9680354     0.6735129
C           5.8684861     1.1970724     0.5314235
H           6.7943482     1.7654142     0.5113897
C           4.7067727     1.7772753     1.0442870
H           4.7360579     2.7969359     1.4221660
C           3.4948581     1.0777407     1.0850193
C           2.2378923     1.6947169     1.6482246
H           2.4365638     2.6993502     2.0341282
H           1.8270503     1.0869556     2.4618212
H           1.4498875     1.7764900     0.8895222
C           3.4858933    -0.2402593     0.5986854
C           4.6429308    -0.8339305     0.0914522
H           4.5986538    -1.8626227    -0.2554757
C           5.8373012    -0.1135979     0.0546957
H           6.7382338    -0.5781470    -0.3370325
19
296_C8H10O_0-4-14-9 (120,) energy =    -386.0851254
C           1.6563210    -1.2176976    -0.6226651
H           1.4973831    -0.3429542    -1.2675726
H           0.6938944    -1.6835797    -0.3978985
H           2.2844793    -1.9413792    -1.1582368
O           2.2197806    -0.8401409     0.6293034
C           5.8491891     1.2071977     0.5571544
H           6.7902933     1.7501529     0.5564936
C           4.7061849     1.7924132     1.1051009
H           4.7639856     2.7928087     1.5284211
C           3.4754244     1.1264706     1.1183452
C           2.2375103     1.7526583     1.7118325
H           2.4461316     2.7670752     2.0656476
H           1.8586234     1.1660494     2.5567197
H           1.4228121     1.8066978     0.9803744
C           3.4251753    -0.1670288     0.5704128
C           4.5633928    -0.7656181     0.0252550
H           4.4990848    -1.7737976    -0.3739549
C           5.7764265    -0.0762499     0.0161862
H           6.6607748    -0.5461729    -0.4058696
19
296_C8H10O_0-4-14-9 (135,) energy =    -386.0861881
C           1.6914515    -1.3218052    -0.6396540
H           1.8234941    -0.6468002    -1.4947551
H           0.6281270    -1.5284794    -0.4961284
H           2.2062225    -2.2687378    -0.8501472
O           2.1449171    -0.7194813     0.5666332
C           5.8411335     1.2024919     0.5713175
H           6.7961200     1.7201281     0.5894684
C           4.7160239     1.7892810     1.1556993
H           4.8015307     2.7676425     1.6235193
C           3.4689006     1.1580910     1.1447023
C           2.2497952     1.7909732     1.7679184
H           2.4843262     2.7864679     2.1574846
H           1.8597344     1.1836406     2.5931930
H           1.4343275     1.8881007     1.0418463
C           3.3790615    -0.1091675     0.5382892
C           4.4957977    -0.7044202    -0.0537639
H           4.4065880    -1.6824622    -0.5164817
C           5.7274690    -0.0467640    -0.0353900
H           6.5935141    -0.5165411    -0.4941193
19
296_C8H10O_0-4-14-9 (150,) energy =    -386.0878994
C           1.7269293    -1.4041622    -0.6341525
H           1.9978310    -0.9249022    -1.5835245
H           0.6426503    -1.5256861    -0.5798178
H           2.1945948    -2.3970527    -0.5883581
O           2.0889990    -0.5933729     0.4740670
C           5.8480697     1.1925910     0.5912316
H           6.8176053     1.6802565     0.6385858
C           4.7355992     1.7834278     1.1975869
H           4.8457248     2.7357081     1.7118190
C           3.4719788     1.1915080     1.1513599
C           2.2667545     1.8291094     1.7954846
H           2.5261883     2.7985122     2.2320685
H           1.8529547     1.1958275     2.5894459
H           1.4603362     1.9813468     1.0686412
C           3.3467901    -0.0432543     0.4831486
C           4.4485944    -0.6401809    -0.1352670
H           4.3382840    -1.5874375    -0.6528037
C           5.6995476    -0.0199814    -0.0764644
H           6.5529115    -0.4923512    -0.5559049
19
296_C8H10O_0-4-14-9 (165,) energy =    -386.0892942
C           1.7535604    -1.4647725    -0.6089003
H           2.0502290    -1.1441049    -1.6161405
H           0.6715679    -1.6084389    -0.5753413
H           2.2467189    -2.4184803    -0.3767830
O           2.0459997    -0.4700265     0.3583162
C           5.8547316     1.1861424     0.6267790
H           6.8360007     1.6433870     0.7158779
C           4.7468447     1.7776477     1.2425071
H           4.8724858     2.6985109     1.8078690
C           3.4703441     1.2236222     1.1473185
C           2.2711695     1.8589149     1.8044987
H           2.5507611     2.7899034     2.3071652
H           1.8192638     1.1902425     2.5471311
H           1.4869557     2.0832731     1.0718386
C           3.3214898     0.0288504     0.4116051
C           4.4186351    -0.5699376    -0.2135930
H           4.2987773    -1.4862316    -0.7810512
C           5.6849616     0.0125826    -0.1008275
H           6.5334991    -0.4607814    -0.5878456
19
296_C8H10O_0-4-14-9 (180,) energy =    -386.0898109
C           1.7653184    -1.5149539    -0.5580687
H           2.0489100    -1.3557543    -1.6070935
H           0.6897619    -1.6932234    -0.4991419
H           2.2996041    -2.3933111    -0.1717413
O           2.0131075    -0.3639943     0.2305951
C           5.8603295     1.1626871     0.6626191
H           6.8515776     1.5863960     0.7959181
C           4.7547005     1.7540598     1.2830969
H           4.8925688     2.6398748     1.8993180
C           3.4671356     1.2395692     1.1360161
C           2.2712817     1.8722153     1.8016234
H           2.5701091     2.7454137     2.3896647
H           1.7636562     1.1647822     2.4681917
H           1.5256252     2.1924160     1.0639545
C           3.3014444     0.0899611     0.3340110
C           4.3967823    -0.5116094    -0.2917566
H           4.2675574    -1.3945280    -0.9075110
C           5.6753453     0.0302324    -0.1234038
H           6.5217461    -0.4437509    -0.6135270
