27
055_C13H11NO2_2-0-22-19 (-165,) energy =    -707.2207902
N           1.5511973    -1.1558117    -0.2941170
H           1.3484823    -0.6679835     0.5678258
C           2.7454022    -0.8582386    -0.9125235
C           5.5567221     1.5332974     1.3071658
H           6.2757306     2.1424830     1.8483257
C           5.6035340     1.4658272    -0.0877016
H           6.3586811     2.0236302    -0.6348323
C           4.6853894     0.6806278    -0.7801594
H           4.7134869     0.6035382    -1.8619581
C           3.6981580    -0.0350527    -0.0888603
C           3.6646994     0.0272003     1.3120226
H           2.9436518    -0.5599338     1.8748966
C           4.5905064     0.8071143     2.0053032
H           4.5615039     0.8397922     3.0909993
O           3.0315055    -1.2212217    -2.0491429
C          -1.8725707    -3.1577523    -1.7209691
H          -2.7713158    -3.6631910    -2.0618838
C          -1.9117585    -2.3878969    -0.5554661
H          -2.8347847    -2.2907913     0.0136943
C          -0.7647718    -1.7359617    -0.1164834
O          -0.7268450    -0.9630845     1.0238187
H          -1.6062991    -0.9519989     1.4302813
C           0.4470981    -1.8442886    -0.8304188
C           0.4754561    -2.6183836    -1.9960316
H           1.4012001    -2.6872125    -2.5493002
C          -0.6810718    -3.2686217    -2.4339341
H          -0.6414454    -3.8636902    -3.3415697
27
055_C13H11NO2_2-0-22-19 (-150,) energy =    -707.2198049
N           1.5988011    -1.2678573    -0.2188309
H           1.3997763    -0.7970188     0.6540726
C           2.7281436    -0.8499093    -0.8956658
C           5.5570032     1.5412914     1.3000485
H           6.2787817     2.1524609     1.8352643
C           5.5168522     1.5645841    -0.0965216
H           6.2069211     2.1949988    -0.6507096
C           4.5956565     0.7768388    -0.7819479
H           4.5571894     0.7697039    -1.8661645
C           3.6915786    -0.0323079    -0.0800386
C           3.7453305    -0.0605180     1.3213108
H           3.0912838    -0.7196016     1.8860566
C           4.6746661     0.7222912     2.0065381
H           4.7143587     0.6850817     3.0917553
O           2.9508644    -1.1213137    -2.0700398
C          -1.8673611    -3.1144978    -1.7496547
H          -2.7755690    -3.5798605    -2.1213267
C          -1.9248997    -2.2840319    -0.6276712
H          -2.8722185    -2.0984141    -0.1242330
C          -0.7653538    -1.6805294    -0.1513575
O          -0.7434799    -0.8519007     0.9486178
H          -1.6381896    -0.7857909     1.3147343
C           0.4753656    -1.9072548    -0.7804648
C           0.5222277    -2.7405292    -1.9028389
H           1.4704589    -2.8961753    -2.3982624
C          -0.6460586    -3.3373345    -2.3822213
H          -0.5931249    -3.9796750    -3.2562181
27
055_C13H11NO2_2-0-22-19 (-135,) energy =    -707.2181947
N           1.6388102    -1.3748867    -0.1546761
H           1.4549792    -0.9367845     0.7390448
C           2.6918216    -0.8383965    -0.8787754
C           5.5533370     1.5342895     1.2917820
H           6.2816039     2.1427668     1.8212756
C           5.4091749     1.6597469    -0.0924814
H           6.0243544     2.3668260    -0.6423542
C           4.4801865     0.8756617    -0.7715341
H           4.3621304     0.9471317    -1.8476793
C           3.6718359    -0.0319092    -0.0732385
C           3.8296710    -0.1617103     1.3143137
H           3.2508251    -0.8958388     1.8682414
C           4.7672968     0.6177087     1.9921607
H           4.8889921     0.5021873     3.0657160
O           2.8360498    -1.0137050    -2.0817156
C          -1.8573305    -3.0819391    -1.7791421
H          -2.7707381    -3.5104438    -2.1813572
C          -1.9274415    -2.1845183    -0.7111641
H          -2.8900359    -1.9098299    -0.2830945
C          -0.7608850    -1.6241229    -0.1969401
O          -0.7491678    -0.7338349     0.8521958
H          -1.6580238    -0.5911898     1.1568499
C           0.4949462    -1.9735190    -0.7285278
C           0.5535580    -2.8713998    -1.7973521
H           1.5190661    -3.1174933    -2.2193902
C          -0.6184910    -3.4208425    -2.3207654
H          -0.5570417    -4.1153213    -3.1532360
27
055_C13H11NO2_2-0-22-19 (-120,) energy =    -707.2160832
N           1.6757211    -1.4645429    -0.1069541
H           1.5159668    -1.0702818     0.8121832
C           2.6415267    -0.8073951    -0.8613607
C           5.5589428     1.5157497     1.2870806
H           6.2992398     2.1133911     1.8122675
C           5.3033853     1.7476138    -0.0670913
H           5.8440259     2.5267938    -0.5975303
C           4.3590037     0.9777087    -0.7411711
H           4.1552509     1.1317520    -1.7956588
C           3.6465168    -0.0227044    -0.0658090
C           3.9158082    -0.2585060     1.2902184
H           3.4114928    -1.0628380     1.8186984
C           4.8688437     0.5073914     1.9620195
H           5.0775903     0.3103260     3.0100248
O           2.6938314    -0.8771254    -2.0808911
C          -1.8399978    -3.0649063    -1.7999726
H          -2.7552412    -3.4657918    -2.2260269
C          -1.9149369    -2.0915142    -0.8017772
H          -2.8811023    -1.7295325    -0.4541930
C          -0.7451901    -1.5635279    -0.2574668
O          -0.7390416    -0.6013241     0.7236044
H          -1.6541031    -0.3834490     0.9576668
C           0.5109726    -2.0307515    -0.6831574
C           0.5730684    -3.0003813    -1.6847266
H           1.5457860    -3.3354519    -2.0247426
C          -0.5973225    -3.5159162    -2.2436947
H          -0.5343606    -4.2689718    -3.0233089
27
055_C13H11NO2_2-0-22-19 (-105,) energy =    -707.2142094
N           1.6269101    -1.0828916    -0.7868867
H           2.0393543    -0.5930268    -1.5702875
C           2.1640292    -0.8624661     0.4739716
C           5.6864959     1.5969124     0.7868419
H           6.5797714     2.2076758     0.8857996
C           5.3680040     0.6539090     1.7675027
H           6.0136468     0.5288212     2.6323498
C           4.2202653    -0.1242072     1.6412388
H           3.9469947    -0.8517312     2.3982855
C           3.3831797     0.0182481     0.5256957
C           3.7028563     0.9752679    -0.4483280
H           3.0472444     1.1480907    -1.2984103
C           4.8482672     1.7607900    -0.3169771
H           5.0804606     2.5055880    -1.0731019
O           1.7019768    -1.3855152     1.4761858
C          -2.0880014    -2.9577253    -1.4894888
H          -3.0367536    -3.4499121    -1.6858921
C          -0.9022700    -3.6572915    -1.6960462
H          -0.9012097    -4.6849576    -2.0449697
C           0.3229999    -3.0334170    -1.4406013
O           1.4706895    -3.7330541    -1.6441615
H           2.2024607    -3.1718146    -1.3292638
C           0.3488300    -1.7019585    -0.9921753
C          -0.8478819    -1.0145643    -0.7823763
H          -0.8073986     0.0100053    -0.4236273
C          -2.0697544    -1.6375222    -1.0279557
H          -2.9981541    -1.0997879    -0.8619159
27
055_C13H11NO2_2-0-22-19 (-90,) energy =    -707.2143414
N           1.6344841    -1.0764999    -0.8308054
H           1.9743969    -0.4790854    -1.5726614
C           2.2404096    -0.9725878     0.4133358
C           5.6377508     1.6421706     0.8181209
H           6.5014994     2.2903337     0.9388036
C           5.4424712     0.5648906     1.6863511
H           6.1543815     0.3726478     2.4842687
C           4.3327291    -0.2620944     1.5338041
H           4.1541677    -1.0950604     2.2056970
C           3.4117143    -0.0329814     0.5020466
C           3.6081682     1.0572477    -0.3578167
H           2.8840756     1.2919056    -1.1342177
C           4.7151534     1.8912235    -0.1991342
H           4.8518147     2.7386748    -0.8651081
O           1.8755992    -1.6438186     1.3672048
C          -2.0991034    -2.9308300    -1.4996341
H          -3.0526931    -3.4175312    -1.6859458
C          -0.9311713    -3.6877058    -1.5264903
H          -0.9491396    -4.7536723    -1.7295815
C           0.3022259    -3.0725940    -1.2875246
O           1.4271134    -3.8313669    -1.3329331
H           2.1738228    -3.2541652    -1.0950688
C           0.3523801    -1.6935601    -1.0210937
C          -0.8273393    -0.9475901    -0.9929470
H          -0.7685568     0.1160464    -0.7775947
C          -2.0564651    -1.5586626    -1.2335884
H          -2.9702814    -0.9729724    -1.2094198
27
055_C13H11NO2_2-0-22-19 (-75,) energy =    -707.2197527
N           1.6970127    -1.1512179    -0.8930560
H           1.8506096    -0.3744876    -1.5227976
C           2.4560547    -1.1796389     0.2496893
C           5.5134575     1.7759901     0.8620007
H           6.2956304     2.5112040     1.0302062
C           5.5783631     0.5288320     1.4888014
H           6.4111980     0.2912211     2.1446207
C           4.5745910    -0.4119126     1.2755804
H           4.6006435    -1.3823070     1.7596432
C           3.4997198    -0.1212767     0.4229930
C           3.4346702     1.1374819    -0.1923135
H           2.5878887     1.4078286    -0.8181681
C           4.4375693     2.0811137     0.0263324
H           4.3742622     3.0558468    -0.4489926
O           2.3325629    -2.1046367     1.0611859
C          -2.1022747    -2.8160793    -1.6215084
H          -3.0666713    -3.2483905    -1.8742229
C          -1.0206829    -3.6552218    -1.3633412
H          -1.1183909    -4.7355389    -1.4024132
C           0.2299891    -3.1177138    -1.0395991
O           1.2630163    -3.9532248    -0.7643449
H           1.8207749    -3.5072196    -0.0859969
C           0.3792844    -1.7191763    -0.9706358
C          -0.7136355    -0.8867706    -1.2231816
H          -0.5775863     0.1918096    -1.1814226
C          -1.9591195    -1.4284954    -1.5380049
H          -2.8044302    -0.7733704    -1.7254647
27
055_C13H11NO2_2-0-22-19 (-60,) energy =    -707.2239293
N           1.5874217    -1.0557016    -0.8039446
H           1.7458368    -0.2593283    -1.4062854
C           2.4052765    -1.1699675     0.2849879
C           5.5462784     1.7078330     0.8577968
H           6.3499457     2.4220602     1.0145856
C           5.6332228     0.4242940     1.4027129
H           6.5051159     0.1369134     1.9835478
C           4.6014677    -0.4894498     1.2048871
H           4.6453064    -1.4869282     1.6287548
C           3.4757153    -0.1352210     0.4476308
C           3.3890833     1.1598367    -0.0845203
H           2.5044612     1.4798051    -0.6296291
C           4.4200120     2.0760298     0.1195897
H           4.3390199     3.0789279    -0.2899010
O           2.3109291    -2.1210804     1.0730826
C          -2.1302767    -2.8573546    -1.6577388
H          -3.0760233    -3.3202194    -1.9260047
C          -1.0552645    -3.6580336    -1.2843869
H          -1.1377509    -4.7399042    -1.2529157
C           0.1793487    -3.0909346    -0.9407748
O           1.1994537    -3.9136776    -0.6018711
H           1.7491269    -3.4412264     0.0712510
C           0.3120413    -1.6866449    -0.9656562
C          -0.7794751    -0.8914981    -1.3313052
H          -0.6585827     0.1897517    -1.3502777
C          -2.0006938    -1.4658641    -1.6741225
H          -2.8385477    -0.8340440    -1.9526873
27
055_C13H11NO2_2-0-22-19 (-45,) energy =    -707.2256861
N           1.5250052    -0.9920654    -0.7029657
H           1.6846267    -0.1876537    -1.2937157
C           2.4021576    -1.1681629     0.3254367
C           5.5688208     1.6964348     0.8268982
H           6.3798935     2.4063473     0.9637509
C           5.7026815     0.3828770     1.2833486
H           6.6186472     0.0676633     1.7750886
C           4.6613356    -0.5256574     1.1124043
H           4.7422759    -1.5459676     1.4715462
C           3.4787630    -0.1354724     0.4682188
C           3.3455698     1.1890472     0.0254562
H           2.4182385     1.5337377    -0.4255634
C           4.3860798     2.0997222     0.2044043
H           4.2687556     3.1254536    -0.1335221
O           2.3536192    -2.1411798     1.0923677
C          -2.1119324    -2.8807246    -1.7301276
H          -3.0410950    -3.3581670    -2.0288210
C          -1.0658623    -3.6557251    -1.2433066
H          -1.1534394    -4.7341206    -1.1558879
C           0.1540616    -3.0787683    -0.8573661
O           1.1399824    -3.9051066    -0.4455443
H           1.7067031    -3.4098395     0.2008384
C           0.2956820    -1.6766666    -0.9584185
C          -0.7722270    -0.9056459    -1.4369622
H          -0.6478231     0.1735350    -1.5032726
C          -1.9710229    -1.4933869    -1.8262439
H          -2.7839250    -0.8757596    -2.1955629
27
055_C13H11NO2_2-0-22-19 (-30,) energy =    -707.2257688
N           1.4879354    -0.9720422    -0.6070124
H           1.6314841    -0.1454958    -1.1707857
C           2.4304561    -1.1935513     0.3506270
C           5.5646685     1.7166991     0.8019756
H           6.3685174     2.4373817     0.9242362
C           5.7575938     0.3824405     1.1680865
H           6.7125516     0.0616940     1.5747117
C           4.7256274    -0.5402763     1.0165935
H           4.8536763    -1.5771270     1.3082582
C           3.4924481    -0.1429951     0.4808808
C           3.3006257     1.2016606     0.1293621
H           2.3358880     1.5492242    -0.2322305
C           4.3322193     2.1259027     0.2896672
H           4.1692299     3.1665506     0.0240087
O           2.4511766    -2.1966902     1.0796976
C          -2.1004153    -2.8763938    -1.7875449
H          -3.0218654    -3.3502694    -2.1141914
C          -1.1064009    -3.6417118    -1.1921115
H          -1.2263222    -4.7109313    -1.0483902
C           0.1073140    -3.0777077    -0.7636926
O           1.0312885    -3.9221567    -0.2630915
H           1.6548730    -3.4110042     0.3185224
C           0.2946539    -1.6862716    -0.9389820
C          -0.7260145    -0.9241059    -1.5284056
H          -0.5724943     0.1472682    -1.6459711
C          -1.9134008    -1.5020243    -1.9601074
H          -2.6822619    -0.8868146    -2.4171589
27
055_C13H11NO2_2-0-22-19 (-15,) energy =    -707.2251344
N           1.4781143    -0.9844570    -0.5319623
H           1.5880239    -0.1257072    -1.0537498
C           2.4861557    -1.2406871     0.3468714
C           5.5394584     1.7555305     0.7935980
H           6.3239144     2.4977054     0.9131212
C           5.8064063     0.4071412     1.0430232
H           6.7995190     0.0970916     1.3557001
C           4.7998399    -0.5439070     0.8959755
H           4.9863179    -1.5928915     1.0993652
C           3.5172634    -0.1595456     0.4801712
C           3.2517983     1.1981563     0.2459535
H           2.2506651     1.5307907    -0.0174148
C           4.2587717     2.1499366     0.4024138
H           4.0392258     3.1996594     0.2293058
O           2.5945242    -2.2838732     1.0086143
C          -2.0932065    -2.8528147    -1.8315390
H          -3.0137302    -3.3111522    -2.1818896
C          -1.1756852    -3.6099880    -1.1170473
H          -1.3552548    -4.6587408    -0.9022713
C           0.0357512    -3.0721252    -0.6466628
O           0.8602492    -3.9267001    -0.0134981
H           1.5853855    -3.4218030     0.4446156
C           0.3027792    -1.7061878    -0.9117999
C          -0.6430892    -0.9527780    -1.6275313
H          -0.4323336     0.0989199    -1.8162454
C          -1.8277794    -1.5062164    -2.0942962
H          -2.5323655    -0.8938026    -2.6482073
27
055_C13H11NO2_2-0-22-19 (0,) energy =    -707.2247927
N           1.4824107    -0.9952599    -0.5021215
H           1.5406103    -0.0914882    -0.9512715
C           2.5509460    -1.2889484     0.2898274
C           5.5107706     1.7867059     0.8196567
H           6.2722750     2.5494138     0.9570479
C           5.8472233     0.4342720     0.9174483
H           6.8717790     0.1419186     1.1295352
C           4.8704388    -0.5435900     0.7476680
H           5.1121133    -1.5974548     0.8340171
C           3.5471180    -0.1805116     0.4598939
C           3.2126641     1.1796930     0.3784612
H           2.1824640     1.4889704     0.2192816
C           4.1907404     2.1573858     0.5578427
H           3.9184162     3.2076424     0.5041472
O           2.7482753    -2.3848165     0.8354709
C          -2.0837995    -2.8418597    -1.8510625
H          -3.0048065    -3.2918231    -2.2107475
C          -1.2491454    -3.5615062    -1.0082926
H          -1.4962131    -4.5719926    -0.6981796
C          -0.0444975    -3.0324384    -0.5105765
O           0.6629423    -3.8408861     0.2984784
H           1.5114471    -3.3989871     0.5729495
C           0.3101392    -1.7145725    -0.8947979
C          -0.5484451    -1.0025859    -1.7503942
H          -0.2686607     0.0095237    -2.0402728
C          -1.7326774    -1.5440277    -2.2313366
H          -2.3681740    -0.9609541    -2.8904177
27
055_C13H11NO2_2-0-22-19 (15,) energy =    -707.2252903
N           1.4578590    -0.9571141    -0.5031128
H           1.4665372    -0.0146215    -0.8688122
C           2.5787868    -1.3022694     0.1903624
C           5.5037315     1.7746698     0.8757249
H           6.2573406     2.5377602     1.0496916
C           5.8704036     0.4276634     0.8189326
H           6.9102298     0.1403161     0.9469196
C           4.9044048    -0.5515615     0.6024735
H           5.1696825    -1.6027349     0.5684121
C           3.5608533    -0.1933873     0.4220382
C           3.1968978     1.1596912     0.4957256
H           2.1538687     1.4579919     0.4227922
C           4.1648311     2.1379457     0.7214621
H           3.8704574     3.1814901     0.7882590
O           2.8294888    -2.4492009     0.5903021
C          -2.0713578    -2.8659800    -1.8533794
H          -2.9855127    -3.3325031    -2.2094888
C          -1.2951497    -3.5102333    -0.9000811
H          -1.5834975    -4.4755479    -0.4959866
C          -0.1078210    -2.9494138    -0.3977925
O           0.5225699    -3.6484814     0.5653270
H           1.4550738    -3.3178367     0.6647908
C           0.2973886    -1.6882776    -0.9009479
C          -0.4947398    -1.0570158    -1.8749592
H          -0.1694780    -0.0926660    -2.2630121
C          -1.6699766    -1.6232091    -2.3504500
H          -2.2586253    -1.1030377    -3.0996299
27
055_C13H11NO2_2-0-22-19 (30,) energy =    -707.2260083
N           1.4056116    -0.8868092    -0.4774677
H           1.3777701     0.0761739    -0.7842734
C           2.5720775    -1.2744302     0.1124518
C           5.5072412     1.7612756     0.9210656
H           6.2632523     2.5147965     1.1240269
C           5.8776780     0.4257441     0.7444738
H           6.9232581     0.1378444     0.8083040
C           4.9082931    -0.5411801     0.4909184
H           5.1765342    -1.5844842     0.3639171
C           3.5568130    -0.1806580     0.3933005
C           3.1895767     1.1596699     0.5866357
H           2.1430804     1.4541968     0.5785803
C           4.1613972     2.1247623     0.8490993
H           3.8652206     3.1576782     1.0086947
O           2.8431553    -2.4526922     0.3885456
C          -2.0354382    -2.9172364    -1.8618832
H          -2.9332546    -3.4146032    -2.2179575
C          -1.3008372    -3.4793329    -0.8257682
H          -1.6061856    -4.4092487    -0.3564500
C          -0.1402830    -2.8680306    -0.3235870
O           0.4586438    -3.4593292     0.7314360
H           1.4218284    -3.2194277     0.7285722
C           0.2837580    -1.6530112    -0.9121760
C          -0.4603891    -1.1064846    -1.9696804
H          -0.1172143    -0.1772911    -2.4217803
C          -1.6137406    -1.7187380    -2.4442017
H          -2.1706457    -1.2683986    -3.2600717
27
055_C13H11NO2_2-0-22-19 (45,) energy =    -707.2258989
N           1.3352000    -0.8313669    -0.3974317
H           1.2807124     0.1422741    -0.6651857
C           2.5448192    -1.2463122     0.0814926
C           5.5167286     1.7403449     0.9284942
H           6.2826824     2.4817710     1.1386306
C           5.8767196     0.4166611     0.6634720
H           6.9235003     0.1260497     0.6656071
C           4.8951730    -0.5354450     0.4006802
H           5.1546183    -1.5704136     0.2052760
C           3.5416342    -0.1702483     0.3825109
C           3.1854825     1.1575730     0.6632109
H           2.1402310     1.4516505     0.7151387
C           4.1697179     2.1071112     0.9353711
H           3.8831247     3.1298980     1.1631856
O           2.8204681    -2.4408049     0.2634508
C          -1.9922587    -2.9581412    -1.8932168
H          -2.8702337    -3.4783551    -2.2659073
C          -1.3081948    -3.4627248    -0.7931319
H          -1.6321729    -4.3695007    -0.2920881
C          -0.1771428    -2.8143826    -0.2752801
O           0.4015856    -3.3379773     0.8291812
H           1.3730365    -3.1518396     0.7822979
C           0.2702913    -1.6326377    -0.9075880
C          -0.4193180    -1.1433600    -2.0256662
H          -0.0606504    -0.2348256    -2.5061116
C          -1.5451728    -1.7922281    -2.5210272
H          -2.0639971    -1.3929909    -3.3871644
27
055_C13H11NO2_2-0-22-19 (60,) energy =    -707.2239872
N           1.2618453    -0.8102824    -0.2689978
H           1.1770855     0.1703887    -0.5029896
C           2.5168351    -1.2303234     0.0842590
C           5.5316026     1.7184657     0.9074732
H           6.3083743     2.4507773     1.1097707
C           5.8754071     0.4051578     0.5775884
H           6.9203606     0.1133480     0.5216770
C           4.8799992    -0.5352609     0.3249702
H           5.1267169    -1.5627925     0.0800555
C           3.5281270    -0.1678808     0.3818773
C           3.1888746     1.1495312     0.7257409
H           2.1481888     1.4442872     0.8333651
C           4.1872733     2.0866743     0.9884545
H           3.9144600     3.1010374     1.2655103
O           2.7964130    -2.4318700     0.1849915
C          -1.9534908    -2.9785684    -1.9260330
H          -2.8143172    -3.5058711    -2.3278524
C          -1.3332528    -3.4521886    -0.7736534
H          -1.6879846    -4.3421267    -0.2633641
C          -0.2268636    -2.7890339    -0.2277833
O           0.3319696    -3.2807154     0.9048910
H           1.3046225    -3.1230973     0.8448315
C           0.2615669    -1.6341807    -0.8741885
C          -0.3625699    -1.1744376    -2.0392142
H           0.0215932    -0.2791489    -2.5242813
C          -1.4634270    -1.8402936    -2.5717023
H          -1.9337900    -1.4713551    -3.4780612
27
055_C13H11NO2_2-0-22-19 (75,) energy =    -707.2195810
N           1.2054937    -0.8317577    -0.1124352
H           1.0833929     0.1550376    -0.3040879
C           2.5035069    -1.2283916     0.1124209
C           5.5268771     1.7325477     0.8502140
H           6.3060809     2.4682426     1.0296528
C           5.8658585     0.4325839     0.4668118
H           6.9091390     0.1545280     0.3465466
C           4.8676956    -0.5122887     0.2436458
H           5.1101974    -1.5305190    -0.0412501
C           3.5173420    -0.1619777     0.3835388
C           3.1834603     1.1423795     0.7785057
H           2.1473140     1.4244957     0.9463114
C           4.1852236     2.0832733     1.0131302
H           3.9177575     3.0872106     1.3304546
O           2.7973697    -2.4278096     0.1451912
C          -1.9134167    -2.9684260    -1.9685284
H          -2.7626888    -3.4815932    -2.4113422
C          -1.3808461    -3.4307815    -0.7668657
H          -1.7907871    -4.2998029    -0.2619553
C          -0.2906319    -2.7808044    -0.1796986
O           0.2303490    -3.2664428     0.9771749
H           1.2017455    -3.1211657     0.9369008
C           0.2688676    -1.6587771    -0.8203180
C          -0.2668216    -1.2088410    -2.0296211
H           0.1654142    -0.3306159    -2.5047477
C          -1.3491498    -1.8652946    -2.6141849
H          -1.7529305    -1.5110156    -3.5577895
27
055_C13H11NO2_2-0-22-19 (90,) energy =    -707.2150617
N           1.2435487    -0.8051793    -0.2332349
H           1.0799189     0.1940963    -0.2208834
C           2.5789663    -1.2060260    -0.2358242
C           5.5315306     1.6573447     1.0310809
H           6.2922384     2.3693004     1.3396475
C           5.8843732     0.5413128     0.2678035
H           6.9202714     0.3833191    -0.0192428
C           4.9100160    -0.3734642    -0.1230653
H           5.1637405    -1.2532816    -0.7050166
C           3.5683751    -0.1756282     0.2314629
C           3.2225889     0.9402748     1.0079386
H           2.1980082     1.0885144     1.3389075
C           4.2009822     1.8514448     1.4059852
H           3.9246959     2.7075043     2.0152770
O           2.9183831    -2.3283115    -0.5750277
C          -1.8341595    -3.1257879    -1.9572134
H          -2.6344934    -3.7239697    -2.3843938
C          -1.4606572    -3.3341006    -0.6323808
H          -1.9520387    -4.0779007    -0.0133798
C          -0.4332960    -2.5694122    -0.0705244
O          -0.1023856    -2.7774787     1.2300062
H           0.6161773    -2.1571858     1.4461198
C           0.2197576    -1.6004326    -0.8510941
C          -0.1632850    -1.4033564    -2.1787476
H           0.3580375    -0.6543030    -2.7692906
C          -1.1925830    -2.1589251    -2.7373878
H          -1.4856322    -2.0005213    -3.7706953
27
055_C13H11NO2_2-0-22-19 (105,) energy =    -707.2149532
N           1.2670091    -0.8321303    -0.2075249
H           1.0669636     0.1540176    -0.0872513
C           2.6146207    -1.1683949    -0.3371709
C           5.5260017     1.6651596     1.0841871
H           6.2762902     2.3711111     1.4298076
C           5.8740443     0.6617382     0.1760956
H           6.8953276     0.5856405    -0.1867521
C           4.9136107    -0.2458678    -0.2629592
H           5.1646570    -1.0401915    -0.9580691
C           3.5901540    -0.1526785     0.1891685
C           3.2502202     0.8497715     1.1095523
H           2.2429326     0.9121392     1.5128971
C           4.2148885     1.7535703     1.5550595
H           3.9437456     2.5205294     2.2752573
O           2.9775907    -2.2235483    -0.8301922
C          -1.8368074    -3.1257370    -1.9199480
H          -2.6457324    -3.7157023    -2.3424991
C          -1.5744524    -3.2092722    -0.5553793
H          -2.1577724    -3.8498854     0.0982128
C          -0.5338565    -2.4553304    -0.0030735
O          -0.2935563    -2.5437599     1.3312972
H           0.4817963    -1.9808481     1.5116633
C           0.2337822    -1.6161341    -0.8279164
C          -0.0362305    -1.5462778    -2.1953903
H           0.5761147    -0.9010029    -2.8191909
C          -1.0717499    -2.2975016    -2.7476681
H          -1.2779793    -2.2410580    -3.8120749
27
055_C13H11NO2_2-0-22-19 (120,) energy =    -707.2153357
N           1.3484238    -0.5778208    -0.7572816
H           1.1279929     0.0412077     0.0112815
C           2.6948318    -0.8563719    -0.9362539
C           5.5169351     1.4458302     1.3594633
H           6.2439135     2.0217737     1.9258676
C           5.8547513     0.9309518     0.1049784
H           6.8449262     1.1060504    -0.3069267
C           4.9246892     0.1882857    -0.6178170
H           5.1722099    -0.2340628    -1.5861651
C           3.6393081    -0.0325785    -0.1045319
C           3.3115191     0.4738644     1.1614770
H           2.3433239     0.2609113     1.6082091
C           4.2477903     1.2085805     1.8896388
H           3.9880658     1.5875799     2.8743272
O           3.0999308    -1.6727257    -1.7525288
C          -1.7282917    -3.3386591    -1.5831799
H          -2.5244731    -4.0521383    -1.7754144
C          -1.5752255    -2.8102479    -0.2993354
H          -2.2406296    -3.1137017     0.5072229
C          -0.5495332    -1.9028357    -0.0420569
O          -0.3331732    -1.3445416     1.1962606
H          -1.0003317    -1.6814942     1.8136800
C           0.3091684    -1.4876525    -1.0759839
C           0.1511535    -2.0269062    -2.3530414
H           0.8376189    -1.7246741    -3.1343309
C          -0.8643667    -2.9512030    -2.6065106
H          -0.9773259    -3.3648344    -3.6040244
27
055_C13H11NO2_2-0-22-19 (135,) energy =    -707.2176649
N           1.3694964    -0.6608978    -0.6647012
H           1.1527070    -0.0924631     0.1423805
C           2.7096803    -0.8299484    -0.9579791
C           5.5383110     1.4470937     1.3558196
H           6.2666446     2.0185638     1.9249750
C           5.8320527     1.0378567     0.0523856
H           6.7892833     1.2910552    -0.3952033
C           4.9003542     0.3011558    -0.6744122
H           5.1145642    -0.0394950    -1.6820458
C           3.6565343    -0.0207205    -0.1142897
C           3.3736514     0.3804228     1.1996147
H           2.4409745     0.0919266     1.6784133
C           4.3116719     1.1101203     1.9303184
H           4.0869577     1.4073362     2.9510203
O           3.1103523    -1.5455477    -1.8679092
C          -1.7622405    -3.3226151    -1.5953806
H          -2.5778237    -4.0067452    -1.8110392
C          -1.6708534    -2.7366803    -0.3303927
H          -2.4053653    -2.9654227     0.4400236
C          -0.6226852    -1.8661210    -0.0447175
O          -0.4635725    -1.2529605     1.1779994
H          -1.1950062    -1.5127951     1.7584858
C           0.3319080    -1.5476472    -1.0295126
C           0.2330887    -2.1407951    -2.2903103
H           0.9872996    -1.9139266    -3.0320883
C          -0.8099186    -3.0269741    -2.5691207
H          -0.8742253    -3.4828412    -3.5525631
27
055_C13H11NO2_2-0-22-19 (150,) energy =    -707.2194706
N           1.4021598    -0.7734917    -0.5629120
H           1.1899962    -0.2390655     0.2678410
C           2.7223153    -0.8229492    -0.9553092
C           5.5525377     1.4655116     1.3473316
H           6.2806615     2.0418827     1.9117655
C           5.7986135     1.1417492     0.0105317
H           6.7185010     1.4665786    -0.4680379
C           4.8672880     0.3989936    -0.7105822
H           5.0453586     0.1246405    -1.7450500
C           3.6708214    -0.0163228    -0.1101562
C           3.4365689     0.3001851     1.2361625
H           2.5436419    -0.0576606     1.7429551
C           4.3739530     1.0371313     1.9602600
H           4.1867218     1.2684935     3.0052807
O           3.1104327    -1.4417945    -1.9405192
C          -1.8040511    -3.2928906    -1.6242495
H          -2.6427174    -3.9374311    -1.8707741
C          -1.7588864    -2.6648284    -0.3768018
H          -2.5536323    -2.8198622     0.3510138
C          -0.6833740    -1.8438646    -0.0540524
O          -0.5690403    -1.1940909     1.1557696
H          -1.3529728    -1.3846605     1.6927363
C           0.3558970    -1.6204010    -0.9797399
C           0.3019076    -2.2538854    -2.2252081
H           1.1129340    -2.0977785    -2.9229456
C          -0.7742174    -3.0873873    -2.5399424
H          -0.8016506    -3.5743218    -3.5102239
27
055_C13H11NO2_2-0-22-19 (165,) energy =    -707.2206314
N           1.4445508    -0.9000976    -0.4652535
H           1.2317282    -0.3907397     0.3808695
C           2.7331003    -0.8333269    -0.9427993
C           5.5590200     1.4892373     1.3319948
H           6.2849563     2.0763987     1.8880498
C           5.7483341     1.2472731    -0.0310335
H           6.6219307     1.6468661    -0.5388542
C           4.8199623     0.4905585    -0.7413724
H           4.9553336     0.2793138    -1.7968705
C           3.6821636    -0.0215315    -0.1027935
C           3.5051472     0.2139597     1.2686825
H           2.6612335    -0.2164105     1.8021804
C           4.4398915     0.9653582     1.9811354
H           4.2974841     1.1334585     3.0451319
O           3.0986079    -1.3639461    -1.9874626
C          -1.8393868    -3.2513842    -1.6631109
H          -2.7015667    -3.8495043    -1.9430614
C          -1.8307289    -2.5830857    -0.4357706
H          -2.6783332    -2.6595222     0.2432300
C          -0.7278486    -1.8189684    -0.0712567
O          -0.6450704    -1.1341389     1.1224138
H          -1.4703475    -1.2551821     1.6155722
C           0.3838419    -1.6987032    -0.9309371
C           0.3655881    -2.3711560    -2.1579939
H           1.2241955    -2.2850788    -2.8088915
C          -0.7425965    -3.1435171    -2.5150900
H          -0.7409716    -3.6603579    -3.4702396
27
055_C13H11NO2_2-0-22-19 (180,) energy =    -707.2210702
N           1.4995234    -1.0309595    -0.3748320
H           1.2890016    -0.5313866     0.4779488
C           2.7461702    -0.8487801    -0.9270454
C           5.5606611     1.5156766     1.3183313
H           6.2821841     2.1158538     1.8661657
C           5.6841133     1.3589732    -0.0645926
H           6.5017887     1.8382307    -0.5960510
C           4.7619488     0.5855069    -0.7649051
H           4.8477788     0.4397754    -1.8365479
C           3.6952644    -0.0291731    -0.0948786
C           3.5847080     0.1214559     1.2953629
H           2.7993314    -0.3878103     1.8481684
C           4.5138019     0.8898046     1.9970537
H           4.4239391     0.9915836     3.0751054
O           3.0793150    -1.2967301    -2.0203289
C          -1.8603858    -3.2041761    -1.6930277
H          -2.7432014    -3.7549816    -2.0039756
C          -1.8782424    -2.4885845    -0.4927347
H          -2.7681513    -2.4799053     0.1344268
C          -0.7504553    -1.7824009    -0.0904207
O          -0.6924207    -1.0572511     1.0804192
H          -1.5485201    -1.1114897     1.5309340
C           0.4180580    -1.7737165    -0.8811579
C           0.4262160    -2.4934006    -2.0816456
H           1.3218002    -2.4826353    -2.6864505
C          -0.7101963    -3.2028418    -2.4786451
H          -0.6873989    -3.7558279    -3.4130795
