20
207_C5H9N3O2S_15-0-1-2 (-165,) energy =    -908.7497600
S           2.6588111    -1.4385291    -0.4832769
N           3.8088974    -0.9613505     0.6618852
C           5.1810043    -1.3546857     0.2990483
H           5.3737738    -1.0768041    -0.7373095
H           5.3593249    -2.4315526     0.4320327
H           5.8638013    -0.7975409     0.9469953
C           3.4557632    -1.3041056     2.0454563
H           2.4563478    -0.9300296     2.2793403
H           4.1667290    -0.7942405     2.7019037
H           3.4946673    -2.3854305     2.2377188
O           2.1909235    -2.8237347    -0.2672652
O           3.1717436    -1.0459088    -1.7937821
C          -0.1719602     1.0741889     0.3758175
H          -0.5486189     2.0773750     0.5207709
N           1.1492111     0.8468185     0.0863172
C           1.2469075    -0.4599709    -0.0134873
N           0.0532903    -1.0926484     0.1900524
H          -0.0733961    -2.0960793     0.1501093
C          -0.8715323    -0.1134091     0.4408880
H          -1.9086125    -0.3387908     0.6386718
20
207_C5H9N3O2S_15-0-1-2 (-150,) energy =    -908.7505565
S           2.5917115    -1.5873352    -0.4119559
N           3.7492892    -1.0967297     0.7058368
C           5.1470585    -1.2278280     0.2747295
H           5.2410852    -0.8845546    -0.7549703
H           5.5171335    -2.2605378     0.3516127
H           5.7522683    -0.5848723     0.9210992
C           3.4876703    -1.5151445     2.0858739
H           2.4502909    -1.2971209     2.3517227
H           4.1343146    -0.9248750     2.7417843
H           3.6815700    -2.5841739     2.2482261
O           2.0696845    -2.9367603    -0.1195927
O           3.1164398    -1.2796585    -1.7409247
C          -0.1270309     1.0926550     0.2882169
H          -0.4537728     2.1188751     0.3859976
N           1.1860554     0.7867304     0.0367286
C           1.2184669    -0.5260731    -0.0097218
N          -0.0104965    -1.0882288     0.1922387
H          -0.1892363    -2.0843050     0.1914316
C          -0.8885512    -0.0537646     0.3854905
H          -1.9390527    -0.2177640     0.5728210
20
207_C5H9N3O2S_15-0-1-2 (-135,) energy =    -908.7505061
S           2.5489895    -1.6711608    -0.3430694
N           3.7200601    -1.1987131     0.7509996
C           5.0996777    -1.0725184     0.2744413
H           5.0975706    -0.6902850    -0.7453177
H           5.6392253    -2.0301182     0.3005248
H           5.6141702    -0.3567335     0.9236025
C           3.5469616    -1.6646480     2.1269702
H           2.4984339    -1.5820642     2.4223913
H           4.1355332    -1.0136146     2.7805033
H           3.8712566    -2.7051566     2.2627884
O           1.9766554    -2.9817016     0.0153268
O           3.0812551    -1.4341238    -1.6836598
C          -0.0618833     1.1458816     0.2158390
H          -0.3425595     2.1887447     0.2715172
N           1.2386691     0.7718158    -0.0095118
C           1.2114496    -0.5417855    -0.0079180
N          -0.0428504    -1.0401219     0.2028170
H          -0.2673649    -2.0261429     0.2370756
C          -0.8752449     0.0396958     0.3484362
H          -1.9335431    -0.0700335     0.5313712
20
207_C5H9N3O2S_15-0-1-2 (-120,) energy =    -908.7502575
S           2.4307881    -1.7806825    -0.1997695
N           3.6268777    -1.3202929     0.8544983
C           4.9498934    -0.9535918     0.3535310
H           4.8723708    -0.6420730    -0.6869732
H           5.6535876    -1.7949533     0.4227957
H           5.3317860    -0.1183057     0.9509019
C           3.5355053    -1.7609320     2.2440955
H           2.4908242    -1.8730909     2.5389028
H           3.9940092    -0.9974789     2.8814436
H           4.0475104    -2.7192438     2.4048542
O           1.8162084    -3.0418127     0.2467690
O           2.9538635    -1.6340983    -1.5567621
C          -0.0634607     1.1652903     0.2157511
H          -0.2961188     2.2212880     0.2299892
N           1.2203149     0.7226849     0.0148795
C           1.1321103    -0.5870314     0.0649515
N          -0.1444948    -1.0185755     0.2845367
H          -0.4144453    -1.9904488     0.3622606
C          -0.9273254     0.1039553     0.3842285
H          -1.9903663     0.0499626     0.5645046
20
207_C5H9N3O2S_15-0-1-2 (-105,) energy =    -908.7517435
S           2.2830287    -1.9019020    -0.3376936
N           3.5377881    -1.6767192     0.7197319
C           4.7862016    -1.0599219     0.2752301
H           4.8640197    -1.1424325    -0.8075729
H           5.6221609    -1.5985808     0.7355261
H           4.8371500    -0.0008154     0.5626435
C           3.2513002    -1.6816658     2.1509699
H           2.3963256    -2.3296149     2.3533395
H           3.0455466    -0.6703638     2.5278666
H           4.1187297    -2.0925046     2.6783757
O           1.5721250    -3.1424017     0.0072806
O           2.7986941    -1.6880761    -1.6878495
C           0.0774666     1.1717542     0.5389675
H          -0.0428806     2.2275365     0.7392770
N           1.3128651     0.6341614     0.2704663
C           1.0847973    -0.6474608     0.0839809
N          -0.2336869    -0.9693836     0.2174570
H          -0.6040483    -1.9075995     0.1394481
C          -0.8961433     0.1965445     0.5107521
H          -1.9631812     0.2268476     0.6718351
20
207_C5H9N3O2S_15-0-1-2 (-90,) energy =    -908.7537117
S           2.3083320    -2.0051423    -0.3248565
N           3.5886527    -1.7964731     0.7174729
C           4.7012361    -0.9389842     0.2964795
H           4.8493044    -1.0424923    -0.7772897
H           5.6023237    -1.2832253     0.8145763
H           4.5214307     0.1164824     0.5420422
C           3.2978410    -1.8296117     2.1504940
H           2.5332548    -2.5820526     2.3499946
H           2.9658844    -0.8514793     2.5275877
H           4.2120130    -2.1220127     2.6766991
O           1.5815769    -3.2197589     0.0694444
O           2.8147797    -1.8344282    -1.6837714
C           0.1919188     1.1566476     0.4571987
H           0.1012112     2.2228915     0.6124299
N           1.4076852     0.5770134     0.1846766
C           1.1454510    -0.7060779     0.0617956
N          -0.1766443    -0.9883765     0.2394272
H          -0.5713527    -1.9193978     0.2101448
C          -0.8047148     0.2056544     0.4943709
H          -1.8670736     0.2697257     0.6750496
20
207_C5H9N3O2S_15-0-1-2 (-75,) energy =    -908.7544808
S           2.2812580    -2.0441552    -0.3844068
N           3.5922272    -1.8619151     0.6389717
C           4.5507624    -0.8001282     0.2971217
H           4.7184978    -0.8008168    -0.7793989
H           5.4940324    -1.0322117     0.8015499
H           4.1987792     0.1904518     0.6133669
C           3.3208585    -2.0111110     2.0717568
H           2.6489098    -2.8551875     2.2286955
H           2.8872062    -1.1007244     2.5127475
H           4.2707896    -2.2242049     2.5714610
O           1.5293390    -3.2283341     0.0527727
O           2.7756901    -1.9132982    -1.7508176
C           0.2647193     1.2108264     0.2878719
H           0.1966421     2.2873045     0.3638064
N           1.4500212     0.5927393    -0.0300407
C           1.1664372    -0.6920506    -0.0329155
N          -0.1403919    -0.9386989     0.2700368
H          -0.5485139    -1.8624926     0.3307291
C          -0.7353657     0.2814274     0.4747249
H          -1.7807806     0.3769041     0.7263042
20
207_C5H9N3O2S_15-0-1-2 (-60,) energy =    -908.7533340
S           2.2152215    -2.0872119    -0.3368073
N           3.5646700    -1.9114390     0.6510267
C           4.3749988    -0.7069751     0.4076351
H           4.4905834    -0.5586098    -0.6664254
H           5.3627390    -0.8791414     0.8463016
H           3.9273670     0.1917748     0.8507683
C           3.3601864    -2.2093829     2.0743181
H           2.7849251    -3.1287970     2.1758548
H           2.8526285    -1.3914618     2.6091366
H           4.3468145    -2.3582794     2.5234806
O           1.4309748    -3.2156366     0.1832760
O           2.6883445    -2.0454743    -1.7157486
C           0.3035372     1.2755027     0.0788959
H           0.2484418     2.3535373     0.0154092
N           1.4488767     0.5999274    -0.2660579
C           1.1600007    -0.6687897    -0.0706163
N          -0.1119638    -0.8490073     0.3910219
H          -0.5252195    -1.7511861     0.5888090
C          -0.6786040     0.3973964     0.4833518
H          -1.6955730     0.5440887     0.8143936
20
207_C5H9N3O2S_15-0-1-2 (-45,) energy =    -908.7502775
S           2.1967990    -2.1142044    -0.3079466
N           3.5866064    -1.9098752     0.6337097
C           4.2267554    -0.5892218     0.5266118
H           4.2329852    -0.2641270    -0.5146661
H           5.2615976    -0.6939218     0.8668921
H           3.7194389     0.1714124     1.1345349
C           3.4954686    -2.3921403     2.0194532
H           3.0294839    -3.3758346     2.0374282
H           2.9340598    -1.7063404     2.6731069
H           4.5181079    -2.4754147     2.4001698
O           1.4077723    -3.1977947     0.2955287
O           2.6309748    -2.1574711    -1.6994888
C           0.3213741     1.2920820    -0.1352811
H           0.2560095     2.3552756    -0.3212388
N           1.4389988     0.5760557    -0.4881832
C           1.1729421    -0.6595651    -0.1236835
N          -0.0568027    -0.7781764     0.4587414
H          -0.4559867    -1.6521135     0.7763228
C          -0.6213371     0.4721686     0.4469090
H          -1.6107565     0.6606481     0.8353818
20
207_C5H9N3O2S_15-0-1-2 (-30,) energy =    -908.7462111
S           2.1439838    -2.1412752    -0.2163659
N           3.5859386    -1.8940925     0.6551383
C           4.0796444    -0.5097694     0.6913534
H           3.9948707    -0.0528722    -0.2956507
H           5.1372292    -0.5439083     0.9706299
H           3.5374514     0.1122137     1.4177473
C           3.6377959    -2.5485122     1.9713181
H           3.2804692    -3.5737649     1.8934547
H           3.0521348    -2.0182289     2.7379075
H           4.6879386    -2.5608267     2.2794230
O           1.3513852    -3.1520164     0.5020530
O           2.5120297    -2.3150364    -1.6168482
C           0.3204364     1.2972815    -0.3153338
H           0.2514695     2.3332892    -0.6172711
N           1.4134572     0.5332014    -0.6416748
C           1.1612054    -0.6491081    -0.1243408
N          -0.0368694    -0.6873420     0.5306938
H          -0.4272198    -1.5176965     0.9576674
C          -0.5948179     0.5593633     0.4046942
H          -1.5615997     0.8019299     0.8192743
20
207_C5H9N3O2S_15-0-1-2 (-15,) energy =    -908.7426893
S           2.0795167    -2.1501908    -0.1682928
N           3.5651883    -1.8489759     0.6253455
C           3.9399860    -0.4441227     0.8322629
H           3.7878215     0.1286277    -0.0830700
H           5.0057253    -0.4256548     1.0801598
H           3.3791902     0.0326494     1.6507887
C           3.7802413    -2.6850853     1.8160328
H           3.5451301    -3.7257937     1.5957322
H           3.1851386    -2.3623883     2.6829594
H           4.8430719    -2.6120164     2.0663094
O           1.2876734    -3.0689762     0.6694845
O           2.3742190    -2.4787532    -1.5587114
C           0.3060237     1.2977770    -0.5098102
H           0.2337932     2.3002734    -0.9084546
N           1.3763289     0.4914412    -0.8062299
C           1.1370200    -0.6303915    -0.1639099
N          -0.0321497    -0.5902043     0.5405195
H          -0.4102075    -1.3714946     1.0612447
C          -0.5836745     0.6452848     0.3174184
H          -1.5290510     0.9397968     0.7474134
20
207_C5H9N3O2S_15-0-1-2 (0,) energy =    -908.7424915
S           2.8283565    -0.0710431    -0.4402531
N           3.9542175    -0.9519194     0.4955270
C           3.4403099    -1.8471968     1.5403518
H           2.6853747    -2.5195970     1.1278258
H           3.0137676    -1.3135999     2.3997664
H           4.2820790    -2.4606975     1.8758393
C           5.0965098    -0.1344199     0.9355346
H           5.4902988     0.4444156     0.0996545
H           5.8735875    -0.8270767     1.2725955
H           4.8400362     0.5537280     1.7521413
O           2.8259025    -0.6166910    -1.8067090
O           3.0653639     1.3588370    -0.2335142
C          -0.5894927    -0.7683740     1.2668612
H          -1.2754124    -0.6864857     2.0987616
N           0.6783574    -0.2495351     1.3370514
C           1.2164750    -0.5283047     0.1696791
N           0.3630026    -1.2039343    -0.6536259
H           0.5865005    -1.4736700    -1.6035251
C          -0.8085181    -1.3603450     0.0396143
H          -1.6670026    -1.8575364    -0.3860822
20
207_C5H9N3O2S_15-0-1-2 (15,) energy =    -908.7450382
S           2.9103586    -0.1882532    -0.5427047
N           4.0392178    -0.9613738     0.4719770
C           3.5163780    -1.9740707     1.3993434
H           2.8576150    -2.6669908     0.8700454
H           2.9745282    -1.5354229     2.2468698
H           4.3708955    -2.5486274     1.7696210
C           5.0062785    -0.0526610     1.1119375
H           5.3859163     0.6634710     0.3850773
H           5.8376015    -0.6708820     1.4647514
H           4.5763920     0.4948363     1.9620735
O           2.8706062    -0.9094474    -1.8243178
O           3.1856084     1.2477373    -0.5180183
C          -0.4840567    -0.6508599     1.2929439
H          -1.1369494    -0.5026730     2.1420786
N           0.8060003    -0.1827486     1.2966366
C           1.2924885    -0.5377345     0.1269039
N           0.3844215    -1.2137685    -0.6343698
H           0.5702967    -1.5504302    -1.5707490
C          -0.7683800    -1.2893249     0.1035119
H          -1.6594556    -1.7714592    -0.2692385
20
207_C5H9N3O2S_15-0-1-2 (30,) energy =    -908.7489890
S           2.9342628    -0.2632936    -0.6320659
N           4.0686592    -0.9314187     0.4359037
C           3.5884778    -2.0661031     1.2365485
H           3.0493683    -2.7701567     0.5976412
H           2.9411653    -1.7501410     2.0648365
H           4.4651661    -2.5843223     1.6368941
C           4.8283223     0.0436782     1.2389976
H           5.1484758     0.8706625     0.6082047
H           5.7127770    -0.4759901     1.6206790
H           4.2470853     0.4349859     2.0855296
O           2.8608391    -1.1355243    -1.8132765
O           3.2340339     1.1597442    -0.7708313
C          -0.4027515    -0.4987569     1.3461659
H          -1.0120173    -0.2856695     2.2136763
N           0.9022148    -0.0778515     1.2713034
C           1.3238242    -0.5070371     0.1011422
N           0.3609521    -1.1862304    -0.5853673
H           0.4965423    -1.5893816    -1.5037050
C          -0.7602566    -1.1848195     0.2045855
H          -1.6819697    -1.6542824    -0.1043730
20
207_C5H9N3O2S_15-0-1-2 (45,) energy =    -908.7526083
S           3.0283888    -0.4277070    -0.6754848
N           4.1251699    -0.9785184     0.4770024
C           3.7374556    -2.2194894     1.1594407
H           3.3641555    -2.9390885     0.4276660
H           2.9784644    -2.0480245     1.9352117
H           4.6346364    -2.6416442     1.6221386
C           4.6644617     0.0436745     1.3905432
H           4.9296794     0.9341028     0.8231517
H           5.5696141    -0.3721271     1.8441117
H           3.9513302     0.3101409     2.1825611
O           2.9658106    -1.4270746    -1.7510222
O           3.3493459     0.9682206    -0.9581208
C          -0.3101805    -0.4138520     1.3137363
H          -0.9041309    -0.1295345     2.1713664
N           1.0105434    -0.0500876     1.2093957
C           1.4073239    -0.5603915     0.0633189
N           0.4127736    -1.2354105    -0.5802670
H           0.5273826    -1.7066489    -1.4683445
C          -0.7028453    -1.1461619     0.2138438
H          -1.6442776    -1.5953520    -0.0641867
20
207_C5H9N3O2S_15-0-1-2 (60,) energy =    -908.7543880
S           3.0194861    -0.5012276    -0.7051586
N           4.1043487    -0.9678471     0.4816809
C           3.8940182    -2.3043786     1.0479536
H           3.6669119    -3.0080497     0.2461356
H           3.0885863    -2.3174602     1.7972502
H           4.8269653    -2.6155125     1.5276292
C           4.4811172     0.0591801     1.4660248
H           4.6420429     1.0067751     0.9535729
H           5.4213481    -0.2577955     1.9280273
H           3.7152425     0.1858314     2.2424928
O           2.9454753    -1.5804261    -1.6991060
O           3.3540403     0.8665324    -1.0886633
C          -0.2977747    -0.2549296     1.3065383
H          -0.8739628     0.1045197     2.1479697
N           1.0304195     0.0661379     1.1620531
C           1.4000295    -0.5323869     0.0499802
N           0.3809926    -1.2269257    -0.5321481
H           0.4695898    -1.7643200    -1.3847987
C          -0.7221146    -1.0528003     0.2661626
H          -1.6776702    -1.4968109     0.0315094
20
207_C5H9N3O2S_15-0-1-2 (75,) energy =    -908.7541230
S           3.0405122    -0.5486709    -0.6824114
N           4.0969490    -0.9694984     0.5365717
C           4.1026820    -2.3651515     0.9783640
H           3.9710887    -3.0193847     0.1169682
H           3.3214796    -2.5719909     1.7257592
H           5.0792906    -2.5696098     1.4283426
C           4.3687582     0.0361635     1.5708114
H           4.4139885     1.0228725     1.1103979
H           5.3447343    -0.1923808     2.0108420
H           3.6021248     0.0356679     2.3565230
O           2.9616364    -1.6780261    -1.6185119
O           3.4024001     0.7934744    -1.1260005
C          -0.3053997    -0.0699774     1.2371895
H          -0.8896158     0.3744945     2.0311334
N           1.0295161     0.2196933     1.0877816
C           1.4084554    -0.4838802     0.0428772
N           0.3894026    -1.2171506    -0.4907841
H           0.4822030    -1.8282650    -1.2916891
C          -0.7244234    -0.9554628     0.2682345
H          -1.6826538    -1.4058156     0.0577959
20
207_C5H9N3O2S_15-0-1-2 (90,) energy =    -908.7525388
S           3.0199811    -0.6591182    -0.6460175
N           4.0388674    -1.0516698     0.6061646
C           4.2678582    -2.4542753     0.9445489
H           4.1329238    -3.0691205     0.0557219
H           3.5958744    -2.8062017     1.7418014
H           5.3024126    -2.5554436     1.2899096
C           4.2671113    -0.0569336     1.6559095
H           4.1817285     0.9442648     1.2332569
H           5.2847495    -0.1904518     2.0382274
H           3.5501740    -0.1614920     2.4805841
O           2.9201651    -1.8308484    -1.5268034
O           3.4220593     0.6508503    -1.1484153
C          -0.3336608     0.0634830     1.1805126
H          -0.9157968     0.5886219     1.9252339
N           1.0090563     0.3106318     1.0223652
C           1.3820736    -0.4886016     0.0471699
N           0.3534726    -1.2467226    -0.4304762
H           0.4383236    -1.9205384    -1.1802351
C          -0.7626259    -0.8948417     0.2886273
H          -1.7285934    -1.3407384     0.1059683
20
207_C5H9N3O2S_15-0-1-2 (105,) energy =    -908.7506297
S           3.0299592    -0.6764651    -0.6096411
N           3.9602097    -1.0782545     0.6974565
C           4.4291639    -2.4401107     0.9228336
H           4.1482965    -3.0677851     0.0779223
H           4.0007531    -2.8567482     1.8449036
H           5.5226836    -2.4380013     1.0128593
C           4.2851277    -0.0649512     1.6985985
H           3.9688390     0.9177427     1.3495692
H           5.3698374    -0.0470018     1.8604582
H           3.7817562    -0.2827677     2.6490150
O           2.9439262    -1.8594034    -1.4780146
O           3.4704622     0.6206831    -1.1151799
C          -0.3764198     0.1536269     1.0612507
H          -0.9782222     0.7154916     1.7622873
N           0.9740402     0.3804880     0.9408112
C           1.3707990    -0.4619482     0.0139307
N           0.3518251    -1.2276310    -0.4705586
H           0.4551137    -1.9312670    -1.1898373
C          -0.7852363    -0.8354525     0.1941884
H          -1.7489127    -1.2798676    -0.0034602
20
207_C5H9N3O2S_15-0-1-2 (120,) energy =    -908.7508197
S           3.0456038    -0.6512146    -0.5223808
N           3.8154529    -1.1317362     0.8794387
C           4.4831098    -2.4319919     0.9237033
H           3.9820644    -3.1262108     0.2500881
H           4.4223492    -2.8168712     1.9475121
H           5.5414293    -2.3611263     0.6344692
C           4.3436012    -0.0750728     1.7458899
H           3.6518188     0.7683585     1.7660013
H           5.3314980     0.2749366     1.4189242
H           4.4217151    -0.4804986     2.7597887
O           2.9921717    -1.8114108    -1.4256929
O           3.5722683     0.6404004    -0.9575254
C          -0.4640718     0.2224720     0.8827318
H          -1.1154098     0.8107884     1.5143318
N           0.8880955     0.4623241     0.8349639
C           1.3511613    -0.4215747    -0.0193939
N           0.3739445    -1.2240532    -0.5283733
H           0.5305810    -1.9571858    -1.2074471
C          -0.8064350    -0.8151957     0.0435297
H          -1.7514647    -1.2791918    -0.1949122
20
207_C5H9N3O2S_15-0-1-2 (135,) energy =    -908.7517862
S           2.9786398    -0.8076302    -0.4965450
N           3.7101195    -1.3028217     0.9358803
C           4.5562586    -2.4986483     0.8731852
H           4.0942646    -3.2402894     0.2223294
H           4.6300194    -2.9067381     1.8862579
H           5.5694664    -2.2796423     0.5056819
C           4.1905655    -0.2151294     1.7971281
H           3.4210777     0.5555378     1.8773060
H           5.1194800     0.2356089     1.4239965
H           4.3650200    -0.6345961     2.7927158
O           2.8480355    -1.9944584    -1.3560392
O           3.5824745     0.4284037    -0.9929626
C          -0.4501710     0.3344868     0.9142328
H          -1.0590755     0.9978738     1.5128026
N           0.9096313     0.5081865     0.8201350
C           1.3122646    -0.4572364     0.0250212
N           0.2887534    -1.2496360    -0.4013986
H           0.3959686    -2.0356665    -1.0291228
C          -0.8578590    -0.7453049     0.1618558
H          -1.8282239    -1.1803624    -0.0234217
20
207_C5H9N3O2S_15-0-1-2 (150,) energy =    -908.7523197
S           2.9490093    -0.9231581    -0.4636004
N           3.6501728    -1.4266864     0.9945442
C           4.6882482    -2.4569740     0.8375869
H           4.3237466    -3.2442012     0.1775846
H           4.8782747    -2.8811862     1.8280910
H           5.6300920    -2.0527689     0.4388219
C           4.0313897    -0.3140789     1.8803855
H           3.1932741     0.3789002     1.9801794
H           4.9112557     0.2300674     1.5124182
H           4.2521444    -0.7399394     2.8638616
O           2.7633722    -2.1250849    -1.2913642
O           3.6156504     0.2632627    -1.0029762
C          -0.4281283     0.4239634     0.8978456
H          -1.0121734     1.1400109     1.4592496
N           0.9369280     0.5418361     0.7982734
C           1.3046284    -0.4790486     0.0564278
N           0.2517968    -1.2531223    -0.3308330
H           0.3315734    -2.0747834    -0.9159227
C          -0.8749606    -0.6777946     0.2011282
H          -1.8609275    -1.0847133     0.0352560
20
207_C5H9N3O2S_15-0-1-2 (165,) energy =    -908.7514353
S           2.9347539    -1.0434566    -0.4421191
N           3.6371079    -1.5433214     1.0280905
C           4.8425227    -2.3628807     0.7937406
H           4.6040514    -3.1716015     0.1015415
H           5.1330387    -2.7947792     1.7556701
H           5.6814458    -1.7730474     0.3980808
C           3.9078415    -0.4201043     1.9480412
H           3.0067117     0.1813406     2.0781812
H           4.7220788     0.2236166     1.5888497
H           4.1869608    -0.8537369     2.9129558
O           2.6820644    -2.2590460    -1.2307092
O           3.6590539     0.0860688    -1.0307743
C          -0.3734276     0.5351218     0.8492859
H          -0.9266073     1.3087446     1.3635251
N           0.9953212     0.5848816     0.7529879
C           1.3209602    -0.4946907     0.0764458
N           0.2343246    -1.2414606    -0.2718074
H           0.2797767    -2.0966521    -0.8112005
C          -0.8665634    -0.5852615     0.2153991
H          -1.8693789    -0.9564312     0.0675577
20
207_C5H9N3O2S_15-0-1-2 (180,) energy =    -908.7486601
S           2.8962178    -1.1875960    -0.4381920
N           3.6396841    -1.6627825     1.0308460
C           4.9707483    -2.2378736     0.7352433
H           4.8685692    -3.0314271    -0.0079687
H           5.3482340    -2.6764772     1.6631147
H           5.6814479    -1.4824054     0.3741635
C           3.7693354    -0.5611461     2.0086371
H           2.7990580    -0.1050185     2.2025372
H           4.4681552     0.2171009     1.6713271
H           4.1449288    -1.0034835     2.9361705
O           2.5633614    -2.4221310    -1.1647815
O           3.6614069    -0.1262335    -1.0997677
C          -0.3087646     0.6501866     0.7714891
H          -0.8185383     1.4891981     1.2245014
N           1.0594924     0.6198747     0.6726831
C           1.3258906    -0.5253961     0.0831822
N           0.1985638    -1.2378514    -0.2070262
H           0.1972355    -2.1301172    -0.6852839
C          -0.8634377    -0.4887116     0.2258586
H          -1.8852222    -0.8165479     0.1083625
