24
456_C10H11N3_10-9-16-17 (-165,) energy =    -551.9234211
C           6.3382323     0.5643261    -0.5086832
H           7.3118254     1.0433732    -0.4653129
C           5.6202215     0.2707291     0.6415067
H           6.0467972     0.4848304     1.6193591
C           4.3666818    -0.3558099     0.5750308
C           3.7564365    -0.8317527     1.8771592
H           4.5551232    -1.1261603     2.5661859
H           3.1096133    -1.6997710     1.7303613
H           3.1709891    -0.0571550     2.3867332
C           3.8428409    -0.5995155    -0.7215039
N           4.5887800    -0.4046308    -1.8300612
C           5.7842388     0.1623319    -1.7258974
H           6.3331137     0.2939317    -2.6577572
C           1.2482507    -2.7756677    -1.8548528
H           0.9122184    -3.5365357    -2.5472833
N           2.4528429    -2.1505914    -2.0155819
C           2.5585224    -1.2852017    -1.0154434
N           1.4548304    -1.3738755    -0.1726459
C           0.9604344    -0.3430858     0.7398107
H           1.6659042     0.4865966     0.7659910
H           0.8329857    -0.7366191     1.7526802
H          -0.0012109     0.0362626     0.3813075
C           0.6099877    -2.3111605    -0.7337701
H          -0.3569648    -2.5238768    -0.3003728
24
456_C10H11N3_10-9-16-17 (-150,) energy =    -551.9287486
C           6.2912409     0.6185893    -0.4878050
H           7.2472264     1.1318133    -0.4419212
C           5.6161393     0.2380569     0.6641594
H           6.0569665     0.4229577     1.6416074
C           4.3866596    -0.4314636     0.5891255
C           3.7821947    -0.9672691     1.8692542
H           4.5797066    -1.2732837     2.5545899
H           3.1462977    -1.8370154     1.6866515
H           3.1805081    -0.2185698     2.3990243
C           3.8524158    -0.6421084    -0.7065876
N           4.5433888    -0.3374219    -1.8243943
C           5.7180290     0.2748730    -1.7136495
H           6.2305346     0.4974348    -2.6487106
C           1.2585347    -2.8771734    -1.7456353
H           0.9230283    -3.6888803    -2.3778136
N           2.5018359    -2.3256200    -1.8959947
C           2.5913026    -1.3740120    -0.9785072
N           1.4397798    -1.3174231    -0.2082325
C           0.9990299    -0.2267113     0.6544332
H           1.7600934     0.5534933     0.6676397
H           0.8274106    -0.5759544     1.6774910
H           0.0711790     0.2030107     0.2647429
C           0.5803236    -2.2689231    -0.7197968
H          -0.4165178    -2.3975708    -0.3228699
24
456_C10H11N3_10-9-16-17 (-135,) energy =    -551.9319625
C           6.2417375     0.6721144    -0.4760678
H           7.1784742     1.2198240    -0.4309586
C           5.6177700     0.2102434     0.6762612
H           6.0764179     0.3711747     1.6497209
C           4.4137752    -0.5016165     0.5969218
C           3.8197912    -1.0925389     1.8561932
H           4.6173873    -1.3884288     2.5458828
H           3.2144096    -1.9771827     1.6423228
H           3.1843609    -0.3771209     2.3935718
C           3.8626884    -0.6837024    -0.6933294
N           4.4891233    -0.2769710    -1.8146620
C           5.6417005     0.3798821    -1.7022030
H           6.1100591     0.6858080    -2.6366821
C           1.2610238    -2.9622027    -1.6385390
H           0.9240994    -3.8186895    -2.2076480
N           2.5381899    -2.4826206    -1.7620550
C           2.6160346    -1.4507149    -0.9371039
N           1.4235919    -1.2570418    -0.2646414
C           1.0283336    -0.1169642     0.5498072
H           1.8420374     0.6084464     0.5731959
H           0.7961860    -0.4265219     1.5742370
H           0.1467803     0.3652590     0.1160047
C           0.5508966    -2.2201976    -0.7281237
H          -0.4723593    -2.2664928    -0.3841129
24
456_C10H11N3_10-9-16-17 (-120,) energy =    -551.9335437
C           6.2061942     0.7208390    -0.4231584
H           7.1267351     1.2956977    -0.3805921
C           5.6543327     0.1560941     0.7221988
H           6.1498162     0.2692648     1.6840283
C           4.4715952    -0.5875300     0.6406863
C           3.9049327    -1.2630118     1.8678668
H           4.6821975    -1.3926542     2.6278260
H           3.4958891    -2.2488111     1.6264450
H           3.0982449    -0.6788230     2.3289300
C           3.8781184    -0.7073271    -0.6360514
N           4.4189640    -0.1831502    -1.7498262
C           5.5537300     0.5096067    -1.6378943
H           5.9597096     0.9135464    -2.5640463
C           1.2824622    -3.0507659    -1.4560720
H           0.9511962    -3.9562420    -1.9471635
N           2.5814096    -2.6191410    -1.5567389
C           2.6416109    -1.5058448    -0.8470673
N           1.4222109    -1.2052486    -0.2762691
C           1.0469270    -0.0042139     0.4525447
H           1.9087116     0.6614256     0.5151700
H           0.7123610    -0.2512506     1.4659536
H           0.2400324     0.5203618    -0.0691500
C           0.5464657    -2.1938516    -0.6773088
H          -0.4934785    -2.1803339    -0.3844700
24
456_C10H11N3_10-9-16-17 (-105,) energy =    -551.9342676
C           6.1648853     0.7695488    -0.3865403
H           7.0755452     1.3606687    -0.3539938
C           5.7043899     0.0915832     0.7387253
H           6.2591425     0.1366691     1.6732949
C           4.5326364    -0.6687165     0.6664870
C           4.0280213    -1.4444529     1.8598883
H           4.7940481    -1.5003853     2.6397385
H           3.7489677    -2.4642278     1.5759288
H           3.1391902    -0.9795793     2.3055456
C           3.8625900    -0.6952973    -0.5752441
N           4.3041303    -0.0502230    -1.6673451
C           5.4302616     0.6617164    -1.5667646
H           5.7584759     1.1669863    -2.4736658
C           1.2740614    -3.1052471    -1.2303420
H           0.9514565    -4.0626057    -1.6177044
N           2.5871826    -2.7071697    -1.3140647
C           2.6288081    -1.5121999    -0.7535425
N           1.3915207    -1.1266366    -0.2890432
C           1.0206772     0.1556884     0.2864831
H           1.9249645     0.7004547     0.5623781
H           0.4103481     0.0045362     1.1822745
H           0.4556506     0.7594035    -0.4321300
C           0.5167150    -2.1465855    -0.6071771
H          -0.5351324    -2.0846216    -0.3683098
24
456_C10H11N3_10-9-16-17 (-90,) energy =    -551.9355201
C           6.1258112     0.8179331    -0.3279244
H           7.0318836     1.4165149    -0.3037920
C           5.7629777     0.0155024     0.7509394
H           6.3889073    -0.0273930     1.6394664
C           4.5944977    -0.7502390     0.6915425
C           4.1833586    -1.6504048     1.8311571
H           4.9502162    -1.6679913     2.6119009
H           4.0197674    -2.6737167     1.4784450
H           3.2444920    -1.3179598     2.2912198
C           3.8277687    -0.6538494    -0.4889497
N           4.1741691     0.1105371    -1.5371699
C           5.2977309     0.8296529    -1.4490165
H           5.5460266     1.4371168    -2.3177661
C           1.2670521    -3.1345593    -0.9691196
H           0.9617831    -4.1387484    -1.2318072
N           2.5861891    -2.7500227    -1.0267798
C           2.5995988    -1.4829961    -0.6540009
N           1.3415820    -1.0397271    -0.3196665
C           0.9531998     0.3146413     0.0393954
H           1.8211793     0.8467541     0.4327583
H           0.1780074     0.2836827     0.8102602
H           0.5729493     0.8613225    -0.8304319
C           0.4802554    -2.0965377    -0.5397825
H          -0.5833603    -2.0032035    -0.3750754
24
456_C10H11N3_10-9-16-17 (-75,) energy =    -551.9379079
C           6.0885341     0.8365459    -0.2680148
H           6.9895044     1.4431832    -0.2624831
C           5.8224090    -0.0688112     0.7566238
H           6.5193716    -0.1818344     1.5839661
C           4.6586781    -0.8430580     0.7263263
C           4.3519879    -1.8414399     1.8153817
H           5.1292653    -1.8284513     2.5859612
H           4.2774227    -2.8530463     1.4049319
H           3.3914726    -1.6256792     2.2984904
C           3.7945545    -0.6486162    -0.3727583
N           4.0484167     0.2149569    -1.3710621
C           5.1675998     0.9434882    -1.3081118
H           5.3354119     1.6350360    -2.1321503
C           1.2510471    -3.1621573    -0.7339277
H           0.9549471    -4.1906733    -0.8919996
N           2.5740017    -2.7910920    -0.7328838
C           2.5738917    -1.4847516    -0.5287802
N           1.2991730    -1.0016170    -0.3491969
C           0.8970409     0.3875467    -0.1929276
H           1.7258155     0.9595299     0.2265152
H           0.0437154     0.4458788     0.4884314
H           0.6217826     0.8297614    -1.1561832
C           0.4460510    -2.0755934    -0.5014793
H          -0.6257277    -1.9609448    -0.4291365
24
456_C10H11N3_10-9-16-17 (-60,) energy =    -551.9409320
C           6.0537941     0.8548998    -0.2624325
H           6.9499289     1.4684808    -0.2712624
C           5.8626971    -0.1299294     0.7042487
H           6.6148263    -0.2966931     1.4720380
C           4.7047309    -0.9129829     0.6983866
C           4.4868616    -1.9842977     1.7383330
H           5.2945222    -1.9753483     2.4773336
H           4.4375108    -2.9739631     1.2755998
H           3.5374603    -1.8410525     2.2672929
C           3.7638473    -0.6439934    -0.3210288
N           3.9459700     0.2981513    -1.2645586
C           5.0610066     1.0332771    -1.2231335
H           5.1656135     1.7889842    -2.0000002
C           1.1749067    -3.1169739    -0.6098586
H           0.8532112    -4.1472869    -0.6831158
N           2.5037406    -2.7861148    -0.5300192
C           2.5377602    -1.4636676    -0.4683113
N           1.2712166    -0.9280946    -0.4602019
C           0.9086980     0.4822468    -0.4605467
H           1.5258231     1.0266154     0.2576314
H          -0.1396521     0.5749227    -0.1677610
H           1.0568845     0.9243743    -1.4494338
C           0.3955773    -1.9869859    -0.5687856
H          -0.6733557    -1.8346551    -0.6015713
24
456_C10H11N3_10-9-16-17 (-45,) energy =    -551.9436374
C           6.0519546     0.9603067    -0.2694445
H           6.9416933     1.5826368    -0.2911257
C           5.9282011    -0.0938259     0.6331422
H           6.7284752    -0.3050173     1.3388212
C           4.7790293    -0.8891415     0.6492685
C           4.6507090    -2.0252032     1.6334795
H           5.4696420    -1.9959499     2.3598406
H           4.6606285    -2.9921826     1.1230219
H           3.7015501    -1.9790334     2.1780015
C           3.7700064    -0.5602327    -0.2878757
N           3.8863030     0.4543823    -1.1662598
C           4.9958976     1.1970538    -1.1455670
H           5.0419272     2.0093756    -1.8692944
C           1.1579432    -3.0114393    -0.4934506
H           0.8214824    -4.0396138    -0.4844234
N           2.4797973    -2.6897557    -0.3417128
C           2.5390492    -1.3661849    -0.4144194
N           1.2854628    -0.8188176    -0.5765401
C           0.9254265     0.5865882    -0.7173388
H           1.4633255     1.1877441     0.0182393
H          -0.1484174     0.6864177    -0.5421261
H           1.1773333     0.9568180    -1.7134986
C           0.4022934    -1.8730821    -0.6380590
H          -0.6579364    -1.7127419    -0.7688567
24
456_C10H11N3_10-9-16-17 (-30,) energy =    -551.9452373
C           6.0166385     0.9837221    -0.1963306
H           6.8991725     1.6157852    -0.2256576
C           5.9520920    -0.1340776     0.6327668
H           6.7939191    -0.3856919     1.2738422
C           4.8132314    -0.9435142     0.6632858
C           4.7690729    -2.1402193     1.5802597
H           5.6256004    -2.1247347     2.2627685
H           4.7811086    -3.0758116     1.0143201
H           3.8481660    -2.1613316     2.1711466
C           3.7448666    -0.5627076    -0.1894428
N           3.8037658     0.5193131    -0.9906176
C           4.9067667     1.2703929    -0.9855225
H           4.9002547     2.1344389    -1.6483825
C           1.1145113    -2.9964840    -0.3000906
H           0.7656446    -4.0163222    -0.2069714
N           2.4228539    -2.6659453    -0.0870597
C           2.5070603    -1.3549620    -0.2899337
N           1.2738300    -0.8251925    -0.6142533
C           0.9081350     0.5585907    -0.8990396
H           1.3517079     1.2274994    -0.1600451
H          -0.1807019     0.6379035    -0.8481189
H           1.2600877     0.8610789    -1.8867520
C           0.3871822    -1.8767840    -0.6247066
H          -0.6588813    -1.7272602    -0.8490080
24
456_C10H11N3_10-9-16-17 (-15,) energy =    -551.9456928
C           5.9872304     1.0265678    -0.1201761
H           6.8671639     1.6622024    -0.1468922
C           5.9687079    -0.1571796     0.6138835
H           6.8465012    -0.4589051     1.1807003
C           4.8350826    -0.9740148     0.6461022
C           4.8630701    -2.2387788     1.4671073
H           5.7912968    -2.2872696     2.0468821
H           4.7894897    -3.1285924     0.8358549
H           4.0124255    -2.2943918     2.1526001
C           3.7155748    -0.5303710    -0.1101449
N           3.7324005     0.6186528    -0.8146505
C           4.8330273     1.3714414    -0.8158542
H           4.7855669     2.2877818    -1.4026964
C           1.0406039    -2.9170398    -0.0960414
H           0.6660784    -3.9138542     0.0952073
N           2.3374754    -2.5793674     0.1575138
C           2.4638713    -1.2999181    -0.1870711
N           1.2617644    -0.7997954    -0.6579290
C           0.9128500     0.5419098    -1.1194351
H           1.2263427     1.2912549    -0.3917796
H          -0.1731802     0.5807206    -1.2370723
H           1.3997468     0.7678703    -2.0688186
C           0.3587630    -1.8347346    -0.5967953
H          -0.6671975    -1.7018811    -0.9076100
24
456_C10H11N3_10-9-16-17 (0,) energy =    -551.9456550
C           5.9508863     1.0869293    -0.0149456
H           6.8256988     1.7299306    -0.0295779
C           5.9795507    -0.1660397     0.5927568
H           6.8930749    -0.5183382     1.0661603
C           4.8534247    -0.9938273     0.6115414
C           4.9498931    -2.3392180     1.2859574
H           5.9595070    -2.4824654     1.6864883
H           4.7203739    -3.1547814     0.5946725
H           4.2260378    -2.4354575     2.1000929
C           3.6847934    -0.4844366    -0.0220839
N           3.6604893     0.7284250    -0.6095011
C           4.7567846     1.4866950    -0.6050753
H           4.6709937     2.4550959    -1.0962908
C           0.9521314    -2.7981772     0.1681481
H           0.5405464    -3.7475857     0.4839242
N           2.2432294    -2.4539111     0.4363737
C           2.4244087    -1.2405798    -0.0818854
N           1.2597942    -0.7912475    -0.6854724
C           0.9681656     0.4598289    -1.3834782
H           1.1196735     1.3159225    -0.7256348
H          -0.0755178     0.4212152    -1.7061394
H           1.6181065     0.5816982    -2.2505371
C           0.3277172    -1.7883666    -0.5222485
H          -0.6761443    -1.6840138    -0.9071468
24
456_C10H11N3_10-9-16-17 (15,) energy =    -551.9456927
C           5.9100310     1.1358291     0.1092429
H           6.7803248     1.7851445     0.1112547
C           5.9799815    -0.1734562     0.5796867
H           6.9222275    -0.5666247     0.9544318
C           4.8581760    -1.0070705     0.5767266
C           4.9910669    -2.4207008     1.0851083
H           6.0421976    -2.6436404     1.2984535
H           4.6134187    -3.1478499     0.3603838
H           4.4014619    -2.5778663     1.9924817
C           3.6538036    -0.4429972     0.0734207
N           3.5889852     0.8218875    -0.3878179
C           4.6835903     1.5832245    -0.3711536
H           4.5687264     2.5952176    -0.7571521
C           0.8661197    -2.6697008     0.4234505
H           0.4124730    -3.5542247     0.8504247
N           2.1525634    -2.3172219     0.7080782
C           2.3903880    -1.1959263     0.0314366
N           1.2738244    -0.8172113    -0.6943359
C           1.0725536     0.3150330    -1.5956809
H           1.0563616     1.2558230    -1.0442349
H           0.1192020     0.1654907    -2.1090614
H           1.8764873     0.3676134    -2.3306808
C           0.3063350    -1.7606258    -0.4410000
H          -0.6711539    -1.6965603    -0.8962587
24
456_C10H11N3_10-9-16-17 (30,) energy =    -551.9452373
C           5.8861539     1.1685841     0.1919618
H           6.7564958     1.8179531     0.1991250
C           5.9811716    -0.1756477     0.5455992
H           6.9426021    -0.5971524     0.8301157
C           4.8559011    -1.0043658     0.5355749
C           4.9930900    -2.4584008     0.9122039
H           6.0512831    -2.7291263     0.9936446
H           4.5179681    -3.1123028     0.1744165
H           4.4963758    -2.6718105     1.8627296
C           3.6307664    -0.4010375     0.1500883
N           3.5365277     0.8983311    -0.1947052
C           4.6358682     1.6546057    -0.1787158
H           4.5045226     2.6958530    -0.4695017
C           0.8065073    -2.5595019     0.6175295
H           0.3196986    -3.3834331     1.1221103
N           2.0804976    -2.1802133     0.9329280
C           2.3616580    -1.1488552     0.1428902
N           1.2996360    -0.8621393    -0.6917432
C           1.1829066     0.1682684    -1.7185472
H           1.0528763     1.1546695    -1.2701558
H           0.3216211    -0.0753568    -2.3456704
H           2.0818192     0.1910464    -2.3363993
C           0.3059014    -1.7617328    -0.3830109
H          -0.6410278    -1.7529568    -0.9027877
24
456_C10H11N3_10-9-16-17 (45,) energy =    -551.9436374
C           5.8733479     1.2135451     0.2623652
H           6.7511405     1.8528314     0.2762680
C           5.9710970    -0.1549715     0.5048134
H           6.9400124    -0.6055132     0.7078863
C           4.8334248    -0.9666108     0.4866873
C           4.9487205    -2.4484453     0.7448492
H           6.0008881    -2.7502315     0.7760910
H           4.4429590    -3.0316150    -0.0321046
H           4.4704954    -2.7225721     1.6892378
C           3.6029721    -0.3234228     0.2094809
N           3.5017161     0.9999689    -0.0205391
C           4.6123506     1.7411649    -0.0029642
H           4.4818587     2.8040262    -0.2006117
C           0.7421583    -2.4215553     0.7453358
H           0.2214593    -3.1882223     1.3034799
N           1.9945796    -2.0013138     1.1040011
C           2.3232443    -1.0601517     0.2283124
N           1.3297654    -0.8819881    -0.7090404
C           1.2950323     0.0616749    -1.8194052
H           1.0938259     1.0750232    -1.4651414
H           0.5133132    -0.2531343    -2.5148307
H           2.2544825     0.0645029    -2.3402181
C           0.3126931    -1.7461903    -0.3714531
H          -0.5965831    -1.8001181    -0.9521532
24
456_C10H11N3_10-9-16-17 (60,) energy =    -551.9409320
C           5.8532262     1.1394054     0.3347836
H           6.7406999     1.7652792     0.3517981
C           5.9435896    -0.2449320     0.4625455
H           6.9141655    -0.7217656     0.5792530
C           4.7905035    -1.0349101     0.4421090
C           4.8746653    -2.5349328     0.5818198
H           5.9189404    -2.8618365     0.6155913
H           4.3840484    -3.0428618    -0.2566213
H           4.3656432    -2.8721674     1.4891038
C           3.5612264    -0.3565682     0.2822533
N           3.4648131     0.9809355     0.1689291
C           4.5885675     1.7036870     0.1843969
H           4.4666850     2.7808783     0.0826064
C           0.6727139    -2.4043625     0.8861651
H           0.1225465    -3.1104113     1.4937918
N           1.8971136    -1.9252873     1.2772839
C           2.2718799    -1.0864534     0.3234811
N           1.3501009    -1.0401928    -0.6959400
C           1.3848754    -0.1937144    -1.8803160
H           1.1182360     0.8372692    -1.6327085
H           0.6815362    -0.5907314    -2.6158707
H           2.3879599    -0.1972034    -2.3124850
C           0.3145979    -1.8721890    -0.3281075
H          -0.5547164    -2.0031691    -0.9558285
24
456_C10H11N3_10-9-16-17 (75,) energy =    -551.9379079
C           5.8749968     1.1394930     0.3679802
H           6.7720623     1.7516699     0.3852754
C           5.9508947    -0.2514042     0.3730868
H           6.9182242    -0.7482298     0.3945985
C           4.7828536    -1.0195314     0.3555497
C           4.8350114    -2.5274400     0.3746748
H           5.8707691    -2.8814540     0.3750749
H           4.3297155    -2.9574050    -0.4984510
H           4.3256749    -2.9223587     1.2589753
C           3.5597735    -0.3154525     0.3264171
N           3.4768859     1.0261558     0.3318912
C           4.6133176     1.7301962     0.3435125
H           4.5051149     2.8135844     0.3422549
C           0.6631054    -2.3277920     1.0174877
H           0.0921614    -2.9662763     1.6784477
N           1.8527041    -1.7674873     1.4159943
C           2.2666054    -1.0486624     0.3863529
N           1.4114576    -1.1609622    -0.6844851
C           1.4867100    -0.4492290    -1.9508502
H           0.8804842     0.4624488    -1.9281195
H           1.1323125    -1.0987832    -2.7560206
H           2.5227670    -0.1713080    -2.1491112
C           0.3691953    -1.9665237    -0.2731627
H          -0.4588198    -2.1977957    -0.9273735
24
456_C10H11N3_10-9-16-17 (90,) energy =    -551.9355201
C           5.8715454     1.1786329     0.4294800
H           6.7802279     1.7735079     0.4459046
C           5.9187375    -0.2058238     0.2861599
H           6.8743685    -0.7167203     0.1920242
C           4.7341988    -0.9487675     0.2745205
C           4.7483309    -2.4525863     0.1465254
H           5.7732335    -2.8364835     0.1582750
H           4.2772297    -2.7838611    -0.7872678
H           4.1912386    -2.9175597     0.9661482
C           3.5279257    -0.2284563     0.4040794
N           3.4733362     1.1051281     0.5511058
C           4.6237900     1.7860680     0.5592096
H           4.5400546     2.8648408     0.6801482
C           0.5651458    -2.1385213     1.1219304
H          -0.0600416    -2.6886692     1.8126311
N           1.7253967    -1.5284997     1.5378698
C           2.2256664    -0.9524391     0.4597308
N           1.4524181    -1.1971598    -0.6507079
C           1.6324109    -0.6494401    -1.9855059
H           1.0106853     0.2399027    -2.1357619
H           1.3664345    -1.4030570    -2.7321202
H           2.6785163    -0.3701091    -2.1229956
C           0.3734229    -1.9450429    -0.2221966
H          -0.4066009    -2.2541832    -0.9027208
24
456_C10H11N3_10-9-16-17 (105,) energy =    -551.9342676
C           5.8631370     1.1976466     0.5123741
H           6.7780714     1.7826967     0.5322563
C           5.8820402    -0.1607934     0.2087284
H           6.8225249    -0.6632254    -0.0063391
C           4.6896444    -0.8917904     0.1979089
C           4.6826481    -2.3738697    -0.0919231
H           5.6972647    -2.7826843    -0.0529944
H           4.2774461    -2.5953947    -1.0876522
H           4.0648897    -2.9129366     0.6334916
C           3.5037734    -0.1861904     0.4935537
N           3.4778672     1.1223895     0.7947335
C           4.6349705     1.7903628     0.8031027
H           4.5742141     2.8477471     1.0555687
C           0.4471009    -1.9317021     1.2334283
H          -0.2437965    -2.3663545     1.9436374
N           1.5925167    -1.2956207     1.6495831
C           2.1931318    -0.8939970     0.5442191
N           1.4885765    -1.2645030    -0.5790026
C           1.7744188    -0.9141654    -1.9605493
H           1.0884094    -0.1386669    -2.3184952
H           1.6794205    -1.7967492    -2.6007148
H           2.7949123    -0.5343455    -2.0309331
C           0.3580531    -1.9215187    -0.1351136
H          -0.3825042    -2.3013437    -0.8240171
24
456_C10H11N3_10-9-16-17 (120,) energy =    -551.9335437
C           5.8675271     1.2013298     0.5857679
H           6.7918221     1.7708554     0.6172191
C           5.8475109    -0.1183150     0.1459181
H           6.7685937    -0.6092446    -0.1607117
C           4.6453119    -0.8343099     0.1223151
C           4.6275515    -2.2889079    -0.2865650
H           5.6239618    -2.7296436    -0.1797733
H           4.3268837    -2.4228778    -1.3335856
H           3.9310708    -2.8667706     0.3285698
C           3.4833553    -0.1472011     0.5398838
N           3.5003492     1.1205269     0.9874843
C           4.6657434     1.7698040     1.0082191
H           4.6358529     2.7924150     1.3812037
C           0.3539943    -1.7331414     1.3102428
H          -0.3837015    -2.0617794     2.0303795
N           1.4871392    -1.0662101     1.7037950
C           2.1584431    -0.8202347     0.5922496
N           1.5017468    -1.3182567    -0.5140188
C           1.8413031    -1.1317595    -1.9155936
H           1.0338616    -0.6063390    -2.4355892
H           2.0117599    -2.0956153    -2.4074123
H           2.7484330    -0.5304785    -1.9880301
C           0.3363840    -1.8958058    -0.0519964
H          -0.3787925    -2.3432109    -0.7271056
24
456_C10H11N3_10-9-16-17 (135,) energy =    -551.9319625
C           5.8589832     1.2151871     0.6643067
H           6.7915433     1.7688197     0.7219287
C           5.8070175    -0.0585892     0.1117525
H           6.7146789    -0.5349992    -0.2530274
C           4.5957973    -0.7601838     0.0538512
C           4.5915708    -2.1881862    -0.4447067
H           5.5299895    -2.6840723    -0.1747993
H           4.5029948    -2.2487453    -1.5368880
H           3.7696618    -2.7655781    -0.0135412
C           3.4474693    -0.0945410     0.5436133
N           3.5038538     1.1213201     1.1213120
C           4.6757694     1.7507142     1.1762284
H           4.6702134     2.7293158     1.6542541
C           0.2658709    -1.5499396     1.3265439
H          -0.5039438    -1.7920543     2.0474729
N           1.3808962    -0.8402332     1.6863456
C           2.1052216    -0.7258681     0.5846639
N           1.4963942    -1.3604892    -0.4822111
C           1.8476783    -1.2799550    -1.8926898
H           1.0120724    -0.8628068    -2.4633122
H           2.0938906    -2.2685656    -2.2941933
H           2.7094481    -0.6227535    -2.0123599
C           0.3083394    -1.8760427    -0.0059547
H          -0.3815660    -2.3954522    -0.6554029
24
456_C10H11N3_10-9-16-17 (150,) energy =    -551.9287486
C           5.8814784     1.1999634     0.7329855
H           6.8222218     1.7348089     0.8243829
C           5.8062230    -0.0319526     0.0971320
H           6.7067772    -0.4995960    -0.2955930
C           4.5860720    -0.7146992    -0.0057900
C           4.5967159    -2.1235962    -0.5590459
H           5.5304964    -2.6230779    -0.2798923
H           4.5402537    -2.1487258    -1.6542235
H           3.7686861    -2.7206528    -0.1690999
C           3.4422053    -0.0600443     0.5154126
N           3.5296824     1.1012051     1.1963077
C           4.7084463     1.7076348     1.2948354
H           4.7194253     2.6420402     1.8545687
C           0.2304659    -1.4181178     1.3176191
H          -0.5590452    -1.5853914     2.0385715
N           1.3210427    -0.6498176     1.6225279
C           2.0822080    -0.6515833     0.5381106
N           1.5236802    -1.4366388    -0.4590197
C           1.8495038    -1.4339028    -1.8809676
H           0.9849356    -1.0939456    -2.4592211
H           2.1359621    -2.4333384    -2.2232260
H           2.6754194    -0.7457347    -2.0609645
C           0.3253510    -1.9071726     0.0392961
H          -0.3357544    -2.5123331    -0.5644552
24
456_C10H11N3_10-9-16-17 (165,) energy =    -551.9234211
C           5.8971639     1.1901329     0.8054120
H           6.8431369     1.7083689     0.9311747
C           5.8060673     0.0067357     0.0871155
H           6.7019396    -0.4452796    -0.3337132
C           4.5804461    -0.6594133    -0.0626462
C           4.6115891    -2.0457443    -0.6722179
H           5.5509608    -2.5398981    -0.4025395
H           4.5647104    -2.0355086    -1.7677147
H           3.7928140    -2.6697232    -0.3066445
C           3.4369317    -0.0235570     0.4876840
N           3.5485667     1.0716119     1.2696360
C           4.7305349     1.6577066     1.4140760
H           4.7516650     2.5383555     2.0551351
C           0.1914110    -1.2757742     1.2941586
H          -0.6165958    -1.3667021     2.0084092
N           1.2621378    -0.4607097     1.5325033
C           2.0576265    -0.5744049     0.4767536
N           1.5405552    -1.4956911    -0.4288842
C           1.8324027    -1.5807866    -1.8596581
H           0.9433283    -1.3043802    -2.4344081
H           2.1399316    -2.5917308    -2.1432671
H           2.6303798    -0.8823861    -2.1090879
C           0.3329413    -1.9180879     0.0910878
H          -0.3050918    -2.5976479    -0.4558968
24
456_C10H11N3_10-9-16-17 (180,) energy =    -551.9160809
C           5.8996514     1.1736940     0.8962510
H           6.8458975     1.6793557     1.0638160
C           5.8061818     0.0477104     0.0924959
H           6.7030863    -0.3757107    -0.3549232
C           4.5811593    -0.6057314    -0.1141822
C           4.6409290    -1.9541315    -0.8027948
H           5.6058394    -2.4245761    -0.5867849
H           4.5598326    -1.8925307    -1.8942134
H           3.8605226    -2.6280220    -0.4425076
C           3.4304346    -0.0055399     0.4656374
N           3.5522997     1.0138195     1.3434732
C           4.7317969     1.5861896     1.5404624
H           4.7508277     2.4048982     2.2592638
C           0.1367992    -1.1270095     1.2454131
H          -0.6944810    -1.1280236     1.9385340
N           1.1975241    -0.2836667     1.4099588
C           2.0323999    -0.5206697     0.4047337
N           1.5459881    -1.5633797    -0.3896183
C           1.8009445    -1.7608180    -1.8213193
H           0.8870310    -1.5570827    -2.3869810
H           2.1299557    -2.7824472    -2.0319665
H           2.5664829    -1.0631549    -2.1554629
C           0.3227518    -1.9208164     0.1450675
H          -0.2971618    -2.6660357    -0.3332369
