21
195_C8H10O2S_0-6-11-12 (-165,) energy =    -859.4448135
C           0.1808171     0.0410941    -1.1796546
H           0.4890505    -0.0685788    -2.2144791
C          -1.1061431     0.4679767    -0.8600340
H          -1.8046480     0.7106097    -1.6556819
C          -1.4980086     0.5789889     0.4766433
H          -2.5034651     0.9088714     0.7223509
C           1.0739935    -0.2749991    -0.1509275
C          -0.5988648     0.2671833     1.4964755
H          -0.9003798     0.3542309     2.5364321
C           0.6971265    -0.1521562     1.1875398
H           1.3909061    -0.3775558     1.9900904
S           2.7479454    -0.7138084    -0.6702006
C           3.5277903    -1.4973402     0.7807003
H           3.5878793    -0.7375507     1.5645193
H           2.8698013    -2.3091529     1.1050705
C           4.9142812    -2.0094090     0.3886690
H           5.3871938    -2.4769560     1.2580577
H           5.5481094    -1.1863096     0.0476754
H           4.8416034    -2.7498003    -0.4120884
O           2.6203521    -1.7309938    -1.7288787
O           3.4910952     0.5292093    -0.9447545
21
195_C8H10O2S_0-6-11-12 (-150,) energy =    -859.4464969
C           0.1578759    -0.0729068    -1.1627036
H           0.4538920    -0.2780007    -2.1862234
C          -1.1445272     0.3164023    -0.8524828
H          -1.8738902     0.4352466    -1.6486033
C          -1.5104721     0.5483442     0.4751211
H          -2.5272295     0.8474340     0.7138940
C           1.0879351    -0.2313587    -0.1322441
C          -0.5705410     0.4007314     1.4968883
H          -0.8519836     0.5875045     2.5293102
C           0.7390474     0.0241782     1.1960922
H           1.4692171    -0.0627299     1.9940166
S           2.7879150    -0.5915539    -0.6266181
C           3.4805563    -1.5906717     0.7339276
H           3.4948427    -0.9573720     1.6247037
H           2.7963405    -2.4294827     0.8944335
C           4.8852501    -2.0607899     0.3560860
H           5.3009917    -2.6576039     1.1741328
H           5.5446504    -1.2068649     0.1781053
H           4.8578320    -2.6754780    -0.5473992
O           2.7187383    -1.4387039    -1.8306651
O           3.5452311     0.6725873    -0.6644028
21
195_C8H10O2S_0-6-11-12 (-135,) energy =    -859.4484122
C           0.1357151    -0.1894348    -1.1238979
H           0.4235239    -0.4758908    -2.1299032
C          -1.1790362     0.1609936    -0.8143835
H          -1.9340692     0.1603636    -1.5953198
C          -1.5222428     0.5102975     0.4928194
H          -2.5476063     0.7790141     0.7311388
C           1.0959219    -0.1909423    -0.1111111
C          -0.5490710     0.5241405     1.4954395
H          -0.8142250     0.8084813     2.5097316
C           0.7703007     0.1883022     1.1941227
H           1.5316434     0.2350674     1.9666794
S           2.8078803    -0.5165933    -0.5826466
C           3.4079213    -1.7058314     0.6640991
H           3.3149586    -1.2218628     1.6400902
H           2.7334775    -2.5666844     0.6244741
C           4.8545420    -2.0926040     0.3589015
H           5.2075869    -2.8057175     1.1107109
H           5.5036786    -1.2130126     0.3802712
H           4.9307387    -2.5591263    -0.6270233
O           2.7829830    -1.1948986    -1.8908872
O           3.5836407     0.7242022    -0.4062687
21
195_C8H10O2S_0-6-11-12 (-120,) energy =    -859.4500608
C           0.1448308    -0.2830830    -1.0767285
H           0.4369899    -0.6368544    -2.0597766
C          -1.1855071     0.0080776    -0.7695461
H          -1.9533103    -0.1168125    -1.5277472
C          -1.5268809     0.4615925     0.5057165
H          -2.5636308     0.6853642     0.7414487
C           1.1187171    -0.1187654    -0.0918170
C          -0.5392135     0.6402725     1.4787109
H          -0.8054168     1.0087266     2.4652865
C           0.7937126     0.3628258     1.1794730
H           1.5708212     0.5373856     1.9175416
S           2.8438611    -0.4138675    -0.5273269
C           3.3544725    -1.7621114     0.5914748
H           3.2030595    -1.3973373     1.6115510
H           2.6694775    -2.5951119     0.4053255
C           4.8103982    -2.1430463     0.3287548
H           5.1048619    -2.9508255     1.0064956
H           5.4715387    -1.2885029     0.4969538
H           4.9405339    -2.4878054    -0.7007795
O           2.8748534    -0.9276882    -1.9081603
O           3.6227183     0.7804894    -0.1543441
21
195_C8H10O2S_0-6-11-12 (-105,) energy =    -859.4511169
C           0.7216365     0.6118918     1.3317803
H           1.4440143     0.9894954     2.0477841
C          -0.5022428     1.2502483     1.1241488
H          -0.7427353     2.1499699     1.6833421
C          -1.4168523     0.7296539     0.2063754
H          -2.3683179     1.2298412     0.0479278
C           1.0116422    -0.5449441     0.6077924
C          -1.1201166    -0.4385469    -0.5014518
H          -1.8408970    -0.8496782    -1.2024934
C           0.0964754    -1.0885990    -0.2973542
H           0.3258238    -2.0159817    -0.8130137
S           2.5796630    -1.3870328     0.8945340
C           3.5747559    -0.9547909    -0.5735050
H           3.0084709    -1.3006682    -1.4435472
H           3.6310153     0.1379067    -0.5968142
C           4.9556110    -1.6024730    -0.4897730
H           5.5394696    -1.3346481    -1.3763569
H           4.8711427    -2.6917036    -0.4440712
H           5.4926872    -1.2563634     0.3977073
O           3.2146771    -0.7683027     2.0716932
O           2.3319601    -2.8390706     0.8458366
21
195_C8H10O2S_0-6-11-12 (-90,) energy =    -859.4514684
C           0.7915750     0.6256789     1.2148611
H           1.5636620     1.0307078     1.8610480
C          -0.4100477     1.3038169     1.0083026
H          -0.5767315     2.2641692     1.4878318
C          -1.3994081     0.7440274     0.1960269
H          -2.3345335     1.2748436     0.0398898
C           0.9845755    -0.6107006     0.5954778
C          -1.1975310    -0.4993629    -0.4082321
H          -1.9750110    -0.9376258    -1.0274809
C          -0.0001133    -1.1871382    -0.2092802
H           0.1680903    -2.1647025    -0.6494831
S           2.5402025    -1.4857994     0.8445331
C           3.5959313    -0.8755248    -0.5145796
H           3.0683322    -1.1115255    -1.4438217
H           3.6468775     0.2116082    -0.4002520
C           4.9755313    -1.5281011    -0.4521264
H           5.5957121    -1.1510620    -1.2718602
H           4.8954201    -2.6144758    -0.5477124
H           5.4716945    -1.2964244     0.4944094
O           3.1267105    -1.0147184     2.1118611
O           2.2949661    -2.9200465     0.6104847
21
195_C8H10O2S_0-6-11-12 (-75,) energy =    -859.4510781
C           0.8587880     0.6341791     1.0740555
H           1.6834565     1.0695190     1.6300533
C          -0.3289315     1.3404128     0.8870615
H          -0.4259185     2.3480834     1.2810280
C          -1.3952349     0.7482375     0.2044061
H          -2.3199849     1.3011626     0.0640905
C           0.9628825    -0.6631034     0.5655096
C          -1.2805671    -0.5519249    -0.2919147
H          -2.1148929    -1.0119266    -0.8137668
C          -0.0939981    -1.2660762    -0.1170409
H           0.0186724    -2.2795905    -0.4874771
S           2.5043818    -1.5740671     0.7726453
C           3.6242196    -0.8018747    -0.4452191
H           3.1429998    -0.9153841    -1.4215292
H           3.6706735     0.2616685    -0.1926122
C           4.9987676    -1.4663856    -0.3980594
H           5.6589419    -0.9931856    -1.1321770
H           4.9226130    -2.5313418    -0.6344835
H           5.4473089    -1.3600418     0.5934891
O           3.0374313    -1.2713252     2.1129031
O           2.2657708    -2.9660266     0.3516590
21
195_C8H10O2S_0-6-11-12 (-60,) energy =    -859.4498529
C           0.9135489     0.6473282     0.9064586
H           1.7872970     1.1154178     1.3499838
C          -0.2715650     1.3664651     0.7579142
H          -0.3126264     2.4080152     1.0636160
C          -1.4050875     0.7456680     0.2254342
H          -2.3272548     1.3093236     0.1141864
C           0.9488808    -0.6932588     0.5128021
C          -1.3574563    -0.5945332    -0.1622942
H          -2.2403821    -1.0750268    -0.5740893
C          -0.1729410    -1.3210267    -0.0284872
H          -0.1050692    -2.3596407    -0.3342698
S           2.4753170    -1.6417376     0.6700011
C           3.6641819    -0.7322383    -0.3748416
H           3.2347992    -0.7044440    -1.3810473
H           3.7154558     0.2866056     0.0192973
C           5.0249364    -1.4262187    -0.3475028
H           5.7298031    -0.8723049    -0.9759308
H           4.9464195    -2.4476337    -0.7300109
H           5.4207542    -1.4641681     0.6710224
O           2.9491096    -1.5323357     2.0613991
O           2.2447904    -2.9631661     0.0599352
21
195_C8H10O2S_0-6-11-12 (-45,) energy =    -859.4480022
C           0.9379007     0.6751414     0.7205082
H           1.8446065     1.1848985     1.0309043
C          -0.2576708     1.3860772     0.6163334
H          -0.2697097     2.4519727     0.8253353
C          -1.4345816     0.7289241     0.2496823
H          -2.3639407     1.2862786     0.1721770
C           0.9411902    -0.6957835     0.4503618
C          -1.4186288    -0.6406621    -0.0208137
H          -2.3332956    -1.1499126    -0.3106444
C          -0.2257621    -1.3588838     0.0671184
H          -0.1843113    -2.4174622    -0.1661558
S           2.4560490    -1.6731828     0.5672620
C           3.7221207    -0.6615950    -0.2722451
H           3.3414222    -0.4482067    -1.2756704
H           3.8084762     0.2736342     0.2869764
C           5.0472503    -1.4222524    -0.3089441
H           5.8042244    -0.8104780    -0.8100660
H           4.9391789    -2.3622141    -0.8567074
H           5.3940157    -1.6456564     0.7036923
O           2.8495009    -1.7688165     1.9847135
O           2.2486291    -2.8979091    -0.2257604
21
195_C8H10O2S_0-6-11-12 (-30,) energy =    -859.4461165
C           0.9566509     0.6901651     0.5362039
H           1.8857373     1.2238083     0.7064558
C          -0.2463582     1.3966459     0.4862385
H          -0.2390280     2.4765230     0.6036197
C          -1.4508958     0.7197524     0.2885613
H          -2.3848785     1.2734842     0.2525425
C           0.9391227    -0.6977921     0.3832715
C          -1.4562334    -0.6679827     0.1302156
H          -2.3920409    -1.1948302    -0.0328731
C          -0.2595907    -1.3820654     0.1651152
H          -0.2432295    -2.4556530     0.0094011
S           2.4405831    -1.7023801     0.4465274
C           3.7716899    -0.6193313    -0.1736597
H           3.4481159    -0.2371242    -1.1464858
H           3.8677319     0.2108652     0.5308936
C           5.0695708    -1.4208617    -0.2754437
H           5.8694618    -0.7708298    -0.6440504
H           4.9534415    -2.2599857    -0.9662532
H           5.3611563    -1.8113641     0.7033604
O           2.7515339    -2.0065610     1.8551894
O           2.2609414    -2.8042000    -0.5155609
21
195_C8H10O2S_0-6-11-12 (-15,) energy =    -859.4446475
C           0.9664542     0.6914617     0.3594729
H           1.9038214     1.2355688     0.3957767
C          -0.2387489     1.3977096     0.3648858
H          -0.2229815     2.4834121     0.3966790
C          -1.4536929     0.7137155     0.3299728
H          -2.3879973     1.2679336     0.3358669
C           0.9398346    -0.7034335     0.3177208
C          -1.4695003    -0.6828393     0.2811861
H          -2.4146211    -1.2169965     0.2455686
C          -0.2736468    -1.3970643     0.2662127
H          -0.2752120    -2.4804230     0.2014467
S           2.4307548    -1.7249813     0.3158594
C           3.8065927    -0.5945549    -0.0790882
H           3.5525703    -0.0849853    -1.0132962
H           3.8682166     0.1350371     0.7329575
C           5.0975965    -1.4043539    -0.2050011
H           5.9274514    -0.7295281    -0.4374279
H           5.0134192    -2.1453348    -1.0041261
H           5.3212559    -1.9230788     0.7310970
O           2.6571611    -2.2262233     1.6834941
O           2.2947627    -2.6845198    -0.7941850
21
195_C8H10O2S_0-6-11-12 (0,) energy =    -859.4440333
C           0.9572175     0.6856065     0.1787732
H           1.8921040     1.2257122     0.0792675
C          -0.2422396     1.3980234     0.2586124
H          -0.2235975     2.4834614     0.2199792
C          -1.4543047     0.7209668     0.3870018
H          -2.3838849     1.2796654     0.4486333
C           0.9275924    -0.7086457     0.2288225
C          -1.4736963    -0.6757741     0.4364242
H          -2.4164821    -1.2058134     0.5365364
C          -0.2843888    -1.3958232     0.3577592
H          -0.2921953    -2.4806219     0.3955457
S           2.4048088    -1.7449831     0.1363691
C           3.8129910    -0.5977191    -0.0244862
H           3.6465504    -0.0019976    -0.9265664
H           3.8035668     0.0535389     0.8542426
C           5.1075405    -1.4069660    -0.1134127
H           5.9562838    -0.7226633    -0.2103815
H           5.0905494    -2.0692583    -0.9829399
H           5.2472208    -2.0129561     0.7856264
O           2.5424808    -2.4446018     1.4260553
O           2.3229592    -2.5314114    -1.1072356
21
195_C8H10O2S_0-6-11-12 (15,) energy =    -859.4446474
C           0.9349118     0.6794350    -0.0000837
H           1.8485832     1.2146823    -0.2340118
C          -0.2573875     1.3905206     0.1554840
H          -0.2534260     2.4715413     0.0488004
C          -1.4441195     0.7175663     0.4453619
H          -2.3688406     1.2752092     0.5638727
C           0.9244793    -0.7093622     0.1388285
C          -1.4429513    -0.6724425     0.5894891
H          -2.3643199    -1.1980016     0.8234387
C          -0.2580435    -1.3905029     0.4454206
H          -0.2420117    -2.4670509     0.5818582
S           2.3992667    -1.7372190    -0.0484375
C           3.8162033    -0.5911380     0.0263749
H           3.7325159     0.0820734    -0.8311201
H           3.7244584    -0.0186664     0.9541631
C           5.1141437    -1.3983875    -0.0186231
H           5.9678272    -0.7145006     0.0213184
H           5.1757301    -1.9799088    -0.9424302
H           5.1734438    -2.0837270     0.8308081
O           2.4625541    -2.6195257     1.1300964
O           2.3889756    -2.3302158    -1.3979482
21
195_C8H10O2S_0-6-11-12 (30,) energy =    -859.4461164
C           0.9029124     0.6707949    -0.1705434
H           1.7870066     1.1833654    -0.5347559
C          -0.2762927     1.3885852     0.0367853
H          -0.2925806     2.4577615    -0.1544105
C          -1.4263444     0.7367510     0.4848625
H          -2.3421093     1.2994932     0.6427401
C           0.9169057    -0.7032186     0.0784124
C          -1.3994156    -0.6368439     0.7368063
H          -2.2908816    -1.1442491     1.0942329
C          -0.2238529    -1.3611715     0.5458437
H          -0.1770144    -2.4217501     0.7696344
S           2.3893898    -1.7215917    -0.1712576
C           3.8025671    -0.6089423     0.1362878
H           3.7749364     0.1687040    -0.6314786
H           3.6472219    -0.1563740     1.1202183
C           5.1016437    -1.4125076     0.0732755
H           5.9502543    -0.7449840     0.2535965
H           5.2242929    -1.8739122    -0.9104257
H           5.1072868    -2.1995280     0.8317978
O           2.3815183    -2.7532077     0.8811659
O           2.4558242    -2.1243380    -1.5879167
21
195_C8H10O2S_0-6-11-12 (45,) energy =    -859.4480023
C           0.8631961     0.6369358    -0.3524081
H           1.7002454     1.1186432    -0.8480056
C          -0.3009895     1.3604560    -0.0939309
H          -0.3551093     2.4095161    -0.3705354
C          -1.3936110     0.7369901     0.5134144
H          -2.2990740     1.3041245     0.7105046
C           0.9207728    -0.7121725     0.0068066
C          -1.3234878    -0.6108392     0.8707448
H          -2.1717606    -1.0936786     1.3474600
C          -0.1591310    -1.3405050     0.6291893
H          -0.0719825    -2.3807764     0.9241078
S           2.3990637    -1.7041473    -0.3003554
C           3.7841079    -0.6446806     0.2383978
H           3.7680283     0.2491464    -0.3906031
H           3.5793895    -0.3601837     1.2749775
C           5.1004335    -1.4089787     0.1004546
H           5.9283492    -0.7686144     0.4212239
H           5.2702241    -1.7039204    -0.9386651
H           5.0931716    -2.3081694     0.7222709
O           2.3378239    -2.8701733     0.5988006
O           2.5444481    -1.8993777    -1.7542729
21
195_C8H10O2S_0-6-11-12 (60,) energy =    -859.4498528
C           0.8219615     0.5863155    -0.5260781
H           1.6079116     1.0163884    -1.1397401
C          -0.3273353     1.3206812    -0.2369741
H          -0.4247067     2.3376375    -0.6061280
C          -1.3539597     0.7462047     0.5179037
H          -2.2490996     1.3211640     0.7384376
C           0.9302888    -0.7225244    -0.0479892
C          -1.2344223    -0.5627415     0.9880657
H          -2.0346493    -1.0072649     1.5729049
C          -0.0832742    -1.3034228     0.7141246
H           0.0406690    -2.3176076     1.0786692
S           2.4162453    -1.6882252    -0.3852180
C           3.7547926    -0.7122160     0.3815704
H           3.7334076     0.2755407    -0.0873614
H           3.4969290    -0.6103220     1.4402089
C           5.0971720    -1.4131797     0.1798885
H           5.8921333    -0.8192851     0.6423874
H           5.3199987    -1.5258682    -0.8846065
H           5.0897687    -2.4042153     0.6420199
O           2.2977154    -2.9608907     0.3481115
O           2.6541536    -1.6821407    -1.8397964
21
195_C8H10O2S_0-6-11-12 (75,) energy =    -859.4510781
C           0.7457504     0.5589020    -0.6827041
H           1.4657512     0.9466204    -1.3968623
C          -0.3999972     1.2835732    -0.3562491
H          -0.5666440     2.2597580    -0.8026681
C          -1.3361839     0.7497745     0.5339134
H          -2.2291400     1.3165845     0.7827943
C           0.9401579    -0.6976670    -0.1034336
C          -1.1331328    -0.5106321     1.0996040
H          -1.8674706    -0.9260441     1.7838629
C           0.0134530    -1.2423848     0.7859292
H           0.1919999    -2.2262499     1.2069412
S           2.4331812    -1.6298919    -0.4917034
C           3.7315583    -0.7756373     0.4663751
H           3.7294458     0.2658434     0.1311098
H           3.4166516    -0.8131697     1.5137961
C           5.0842723    -1.4498813     0.2455770
H           5.8523601    -0.9264669     0.8241611
H           5.3641668    -1.4212998    -0.8110797
H           5.0547385    -2.4934910     0.5708896
O           2.2758681    -2.9854889     0.0644399
O           2.7382148    -1.4302064    -1.9197120
21
195_C8H10O2S_0-6-11-12 (90,) energy =    -859.4514684
C           0.6511715     0.5427882    -0.8080214
H           1.3038624     0.8959342    -1.5998594
C          -0.5045359     1.2406768    -0.4562735
H          -0.7540509     2.1647935    -0.9698480
C          -1.3433066     0.7464359     0.5458046
H          -2.2435022     1.2922041     0.8148637
C           0.9513778    -0.6466689    -0.1412336
C          -1.0367677    -0.4511535     1.1967283
H          -1.6991988    -0.8391039     1.9652924
C           0.1161019    -1.1581165     0.8538812
H           0.3606790    -2.1022414     1.3298183
S           2.4505771    -1.5459533    -0.5788274
C           3.7113112    -0.8448726     0.5406507
H           3.7349400     0.2310336     0.3421702
H           3.3456376    -1.0112497     1.5585633
C           5.0664398    -1.5067207     0.2985027
H           5.8103870    -1.0749703     0.9759101
H           5.3983389    -1.3456631    -0.7309033
H           5.0109307    -2.5830930     0.4832025
O           2.2564607    -2.9581974    -0.2048414
O           2.8177836    -1.1708211    -1.9559510
21
195_C8H10O2S_0-6-11-12 (105,) energy =    -859.4511169
C           0.5637253     0.5204582    -0.9071580
H           1.1563953     0.8404323    -1.7577172
C          -0.6133380     1.1791953    -0.5479033
H          -0.9481722     2.0373555    -1.1236350
C          -1.3612640     0.7318751     0.5431513
H          -2.2768079     1.2477041     0.8193569
C           0.9759100    -0.5824227    -0.1586238
C          -0.9448180    -0.3835589     1.2753164
H          -1.5381403    -0.7382605     2.1132622
C           0.2257263    -1.0538054     0.9218156
H           0.5426073    -1.9426407     1.4585894
S           2.4811514    -1.4514835    -0.6369603
C           3.7003979    -0.9192035     0.6130234
H           3.7521161     0.1719985     0.5474378
H           3.2868676    -1.1980510     1.5869361
C           5.0532788    -1.5782178     0.3510153
H           5.7725814    -1.2502962     1.1084655
H           5.4354233    -1.2996819    -0.6349955
H           4.9698783    -2.6674801     0.3982082
O           2.2542909    -2.8948010    -0.4434861
O           2.9104859    -0.9230435    -1.9439544
21
195_C8H10O2S_0-6-11-12 (120,) energy =    -859.4500630
C           0.4856303     0.4936139    -0.9875121
H           1.0265154     0.7829981    -1.8822818
C          -0.7203321     1.1002980    -0.6318221
H          -1.1367155     1.8806670    -1.2623870
C          -1.3896240     0.7030733     0.5269863
H          -2.3269864     1.1790478     0.8014060
C           1.0077852    -0.5058224    -0.1666841
C          -0.8652421    -0.3129119     1.3313591
H          -1.3964101    -0.6311263     2.2238517
C           0.3327729    -0.9331521     0.9802499
H           0.7252286    -1.7500302     1.5784618
S           2.5204870    -1.3415761    -0.6827115
C           3.6959688    -0.9951349     0.6693913
H           3.7741318     0.0942281     0.7391198
H           3.2412778    -1.3790610     1.5872551
C           5.0438629    -1.6527769     0.3786445
H           5.7392617    -1.4378726     1.1964357
H           5.4705479    -1.2662821    -0.5510897
H           4.9353023    -2.7370490     0.2886847
O           2.2675728    -2.7935436    -0.6784274
O           3.0097640    -0.6696867    -1.8996317
21
195_C8H10O2S_0-6-11-12 (135,) energy =    -859.4484122
C           0.4125880     0.4581903    -1.0333683
H           0.9085546     0.6996024    -1.9675402
C          -0.8168955     1.0239077    -0.6935528
H          -1.2997544     1.7134997    -1.3800273
C          -1.4229464     0.7053380     0.5229281
H          -2.3784585     1.1506404     0.7857382
C           1.0264001    -0.4217101    -0.1407747
C          -0.8089748    -0.1917372     1.4009046
H          -1.2870808    -0.4492451     2.3416798
C           0.4133457    -0.7727237     1.0652258
H           0.8707282    -1.4970576     1.7321800
S           2.5457921    -1.2342350    -0.6796953
C           3.6724153    -1.0915568     0.7482547
H           3.7590966    -0.0238682     0.9719361
H           3.1898646    -1.5963509     1.5895429
C           5.0231279    -1.7207933     0.4090023
H           5.6933674    -1.6315516     1.2699325
H           5.4825124    -1.2146796    -0.4444055
H           4.9069100    -2.7804040     0.1656075
O           2.2651152    -2.6688468    -0.8682752
O           3.1029897    -0.4367220    -1.7868340
21
195_C8H10O2S_0-6-11-12 (150,) energy =    -859.4464968
C           0.3459926     0.3725160    -1.1005271
H           0.7928485     0.5531312    -2.0726278
C          -0.8996640     0.9040579    -0.7690837
H          -1.4437151     1.4947482    -1.5005185
C          -1.4431494     0.6816561     0.4979616
H          -2.4120437     1.1008054     0.7545154
C           1.0430248    -0.3793716    -0.1514378
C          -0.7453970    -0.0824815     1.4352495
H          -1.1700545    -0.2620380     2.4188221
C           0.4961000    -0.6299864     1.1093413
H           1.0190880    -1.2440641     1.8351377
S           2.5773752    -1.1564875    -0.7045312
C           3.6365892    -1.2336693     0.7791307
H           3.6836070    -0.2209061     1.1909785
H           3.1415742    -1.8948509     1.4950628
C           5.0185532    -1.7595099     0.3910608
H           5.6521200    -1.8085456     1.2823624
H           5.4926251    -1.0995496    -0.3400848
H           4.9446928    -2.7620996    -0.0391071
O           2.2853134    -2.5459916    -1.1007467
O           3.2048492    -0.2372169    -1.6706544
21
195_C8H10O2S_0-6-11-12 (165,) energy =    -859.4448135
C           0.2791341     0.2897061    -1.1461750
H           0.6729068     0.3965902    -2.1518658
C          -0.9816280     0.7828924    -0.8177040
H          -1.5854472     1.2651032    -1.5810641
C          -1.4650838     0.6622327     0.4877775
H          -2.4472764     1.0510663     0.7412268
C           1.0541058    -0.3253501    -0.1576930
C          -0.6878882     0.0421867     1.4661756
H          -1.0618970    -0.0545036     2.4814461
C           0.5734380    -0.4648121     1.1454287
H           1.1614734    -0.9575729     1.9119906
S           2.6249938    -1.0249109    -0.7120065
C           3.5932364    -1.3318855     0.8030752
H           3.6272434    -0.3926939     1.3634011
H           3.0549037    -2.0864238     1.3828441
C           4.9911382    -1.8150530     0.4148757
H           5.5741629    -2.0041114     1.3217515
H           5.5086915    -1.0618201    -0.1846661
H           4.9332965    -2.7421267    -0.1619229
O           2.3583419    -2.3360404    -1.3305371
O           3.3122617     0.0187710    -1.4931179
21
195_C8H10O2S_0-6-11-12 (180,) energy =    -859.4440334
C           0.2180944     0.1721459    -1.1765765
H           0.5552837     0.1780698    -2.2083500
C          -1.0544427     0.6298422    -0.8442995
H          -1.7145451     0.9957699    -1.6254259
C          -1.4803578     0.6185116     0.4869137
H          -2.4737141     0.9762928     0.7424696
C           1.0642717    -0.2981702    -0.1664062
C          -0.6308018     0.1481150     1.4874135
H          -0.9583974     0.1378643     2.5230730
C           0.6481773    -0.3135222     1.1655067
H           1.2976902    -0.6763383     1.9542589
S           2.6897802    -0.8665493    -0.7135751
C           3.5622197    -1.4138604     0.7911778
H           3.6150586    -0.5550860     1.4665411
H           2.9603345    -2.2050053     1.2474294
C           4.9545667    -1.9151452     0.4055605
H           5.4825320    -2.2453761     1.3056921
H           5.5345947    -1.1189986    -0.0684715
H           4.8839947    -2.7573370    -0.2878014
O           2.4860696    -2.0490491    -1.5690382
O           3.4139358     0.2986858    -1.2517770
