22
272_C7H11N3O_11-0-1-2 (-165,) energy =    -512.8516567
C           2.5028532    -0.6339884    -0.9450643
N           1.2007630    -0.4435655    -0.5655756
C           0.1901369    -1.3341399    -1.1205845
H          -0.5392683    -0.7709716    -1.7179345
H          -0.3479573    -1.8372285    -0.3064277
H           0.6780417    -2.0713745    -1.7557697
C           0.6996569     0.5214049     0.4048688
H           0.3959149     0.0241775     1.3358676
H          -0.1789628     1.0223246    -0.0216544
H           1.4605642     1.2560950     0.6500946
N           3.5488951     0.4922278     1.0706135
C           3.5969846     0.0114160    -0.1681650
N           4.8778750     0.0803615    -0.6766012
C           5.3794622    -0.3517869    -1.9805472
H           6.3919465     0.0422272    -2.0969275
H           4.7414083     0.0296058    -2.7775856
H           5.3882764    -1.4404693    -2.0464493
C           5.6562080     0.6368831     0.3051874
H           6.7126761     0.8064175     0.1569212
C           4.8211861     0.8804898     1.3718748
H           5.0705216     1.3127952     2.3316451
O           2.8055309    -1.3742733    -1.8898259
22
272_C7H11N3O_11-0-1-2 (-150,) energy =    -512.8493100
C           2.4823869    -0.5580059    -1.0380795
N           1.1772034    -0.3487541    -0.6666383
C           0.1993477    -1.3757099    -1.0036801
H          -0.6717206    -0.9333063    -1.5031571
H          -0.1462441    -1.8795323    -0.0899460
H           0.6632448    -2.0986662    -1.6730920
C           0.7149018     0.6407490     0.2991656
H           0.6081425     0.2160106     1.3054818
H          -0.2630048     1.0090177    -0.0346843
H           1.4097333     1.4749941     0.3590915
N           3.4946494     0.4367746     1.0510910
C           3.5715121     0.0247278    -0.2105274
N           4.8685622     0.0851736    -0.6758509
C           5.3919448    -0.2942397    -1.9870752
H           6.4104117     0.0930352    -2.0679592
H           4.7731591     0.1292437    -2.7781415
H           5.3908062    -1.3792854    -2.1009789
C           5.6305130     0.5590362     0.3599917
H           6.6958879     0.7039554     0.2551325
C           4.7673994     0.7665143     1.4130842
H           4.9986293     1.1352613     2.4034871
O           2.7810219    -1.2962414    -1.9840761
22
272_C7H11N3O_11-0-1-2 (-135,) energy =    -512.8451016
C           2.4726966    -0.4836573    -1.1386344
N           1.1581934    -0.2833482    -0.7700655
C           0.2494640    -1.4189722    -0.8870193
H          -0.7257059    -1.0935372    -1.2686152
H           0.0977680    -1.8874205     0.0967444
H           0.6746702    -2.1440401    -1.5803626
C           0.7220747     0.7309494     0.1840331
H           0.6972153     0.3547612     1.2142461
H          -0.2866388     1.0521180    -0.1039534
H           1.3866468     1.5928814     0.1552619
N           3.4557841     0.3779261     1.0156884
C           3.5568349     0.0328100    -0.2641429
N           4.8667287     0.0863252    -0.6931930
C           5.4113145    -0.2374733    -2.0103498
H           6.4404685     0.1272058    -2.0491656
H           4.8217227     0.2430535    -2.7913484
H           5.3859961    -1.3147611    -2.1813192
C           5.6120098     0.4820257     0.3860167
H           6.6831372     0.6046421     0.3169592
C           4.7258885     0.6525279     1.4275750
H           4.9401674     0.9593226     2.4426343
O           2.7708220    -1.1955438    -2.1024334
22
272_C7H11N3O_11-0-1-2 (-120,) energy =    -512.8395914
C           2.4745519    -0.4163124    -1.2365042
N           1.1465750    -0.2494956    -0.8634532
C           0.3406552    -1.4641018    -0.7655458
H          -0.7026920    -1.2478350    -1.0229224
H           0.3705047    -1.8675063     0.2583124
H           0.7250244    -2.2070589    -1.4651978
C           0.7223739     0.7991104     0.0612019
H           0.7540661     0.4798178     1.1100505
H          -0.3057406     1.0807552    -0.1988132
H           1.3591069     1.6776014    -0.0456409
N           3.4190920     0.3046636     0.9793704
C           3.5485254     0.0310217    -0.3153790
N           4.8704267     0.0866225    -0.7071638
C           5.4410988    -0.1712130    -2.0276357
H           6.4805054     0.1649754    -2.0184542
H           4.8861456     0.3737031    -2.7918612
H           5.3906989    -1.2348144    -2.2656819
C           5.5929109     0.4040421     0.4118265
H           6.6675575     0.5100728     0.3784416
C           4.6816148     0.5301798     1.4389827
H           4.8745072     0.7732342     2.4753768
O           2.7768338    -1.0729388    -2.2344395
22
272_C7H11N3O_11-0-1-2 (-105,) energy =    -512.8337384
C           2.4457601    -0.3645303    -1.3049444
N           1.1015694    -0.2299173    -0.9272593
C           0.4215413    -1.4861150    -0.6105508
H          -0.6603238    -1.3611242    -0.7327637
H           0.6236358    -1.7986411     0.4261071
H           0.7580918    -2.2636626    -1.2990180
C           0.6940878     0.8687588    -0.0502906
H           0.7948891     0.6309964     1.0155510
H          -0.3544804     1.1042109    -0.2716018
H           1.2934427     1.7568166    -0.2607398
N           3.3530390     0.2126586     0.9612605
C           3.5098632     0.0107389    -0.3442504
N           4.8423579     0.0674327    -0.7006733
C           5.4392079    -0.1245013    -2.0206821
H           6.4838112     0.1908844    -1.9693157
H           4.9115072     0.4736646    -2.7641418
H           5.3765215    -1.1717166    -2.3211048
C           5.5408593     0.3099999     0.4508369
H           6.6173478     0.4020958     0.4493840
C           4.6060839     0.3919440     1.4625057
H           4.7777360     0.5729835     2.5151992
O           2.7509219    -0.9428488    -2.3454014
22
272_C7H11N3O_11-0-1-2 (-90,) energy =    -512.8334167
C           2.4162933    -0.0202986    -0.8845213
N           1.1947649     0.0316228    -0.1612761
C           0.6359601    -1.3022890     0.1095922
H           0.3108991    -1.8077607    -0.8142915
H          -0.2262233    -1.1994801     0.7759320
H           1.3839430    -1.9185972     0.6156741
C           0.1975116     0.8588243    -0.8555120
H          -0.6579290     0.9847417    -0.1841695
H          -0.1514300     0.4173500    -1.8004772
H           0.6213939     1.8422659    -1.0717393
N           3.6581772    -0.2078597     1.2780078
C           3.6274431    -0.0937712    -0.0477783
N           4.9034573    -0.0807505    -0.5797693
C           5.3090161     0.0351841    -1.9789888
H           6.3987124    -0.0266563    -2.0206581
H           4.9747388     0.9859375    -2.3972773
H           4.8700559    -0.7685919    -2.5716342
C           5.7622111    -0.1717107     0.4805776
H           6.8336584    -0.1587560     0.3412764
C           4.9748955    -0.2532415     1.6128369
H           5.2983489    -0.3364575     2.6420036
O           2.4887083     0.1816990    -2.0927922
22
272_C7H11N3O_11-0-1-2 (-75,) energy =    -512.8404134
C           2.4156258     0.0636890    -0.9213389
N           1.1904465     0.0890676    -0.2358865
C           0.7025779    -1.2104270     0.2501041
H           0.3611738    -1.8486932    -0.5800149
H          -0.1380050    -1.0448652     0.9311626
H           1.4949118    -1.7165683     0.8037978
C           0.1435643     0.7916972    -0.9861696
H          -0.7076672     0.9415780    -0.3147392
H          -0.1946982     0.2355685    -1.8727148
H           0.5159170     1.7630588    -1.3159729
N           3.6287425    -0.3146533     1.2398663
C           3.6159408    -0.1088991    -0.0740498
N           4.8962122    -0.0843978    -0.5900366
C           5.3232404     0.1240452    -1.9723160
H           6.4114240     0.0351481    -2.0052638
H           5.0190824     1.1113666    -2.3226089
H           4.8716812    -0.6216910    -2.6279919
C           5.7421943    -0.2681632     0.4709667
H           6.8149073    -0.2699186     0.3425149
C           4.9416763    -0.4113287     1.5856377
H           5.2499683    -0.5733349     2.6099739
O           2.5220945     0.3841303    -2.1038957
22
272_C7H11N3O_11-0-1-2 (-60,) energy =    -512.8461271
C           2.4165373     0.1411746    -0.9296530
N           1.1760817     0.0984911    -0.3035547
C           0.7426754    -1.1419687     0.3513303
H           0.3814205    -1.8733362    -0.3881111
H          -0.0762910    -0.9150270     1.0414805
H           1.5657192    -1.5650497     0.9252345
C           0.0996564     0.7133469    -1.0817978
H          -0.7546671     0.8692182    -0.4158693
H          -0.2192760     0.0870421    -1.9280539
H           0.4333706     1.6729993    -1.4777312
N           3.6125483    -0.3859616     1.2219616
C           3.6050440    -0.1197966    -0.0806581
N           4.8869423    -0.0890013    -0.5908889
C           5.3265913     0.1794559    -1.9592330
H           6.4108943     0.0513277    -1.9940601
H           5.0595537     1.1945395    -2.2553076
H           4.8506131    -0.5122246    -2.6554089
C           5.7277118    -0.3387038     0.4618386
H           6.8002084    -0.3572952     0.3338588
C           4.9234638    -0.5199106     1.5665931
H           5.2251209    -0.7361351     2.5827765
O           2.5589421     0.5687982    -2.0767747
22
272_C7H11N3O_11-0-1-2 (-45,) energy =    -512.8497657
C           2.4497677     0.2458357    -0.9430300
N           1.1905073     0.1203253    -0.3923551
C           0.7885196    -1.0495659     0.3921240
H           0.4269201    -1.8545060    -0.2659325
H          -0.0272628    -0.7653808     1.0654045
H           1.6236813    -1.4013574     0.9931969
C           0.1080236     0.6817359    -1.1973112
H          -0.7550732     0.8481200    -0.5452860
H          -0.1917977     0.0100337    -2.0153048
H           0.4283552     1.6270345    -1.6345674
N           3.6364293    -0.4167148     1.1889343
C           3.6270355    -0.0962274    -0.1013923
N           4.9087047    -0.0593430    -0.6121593
C           5.3555848     0.2635204    -1.9667466
H           6.4267886     0.0562006    -2.0233727
H           5.1640026     1.3129488    -2.1945068
H           4.8218086    -0.3435636    -2.6979219
C           5.7486285    -0.3671341     0.4262534
H           6.8198268    -0.4017470     0.2916346
C           4.9464143    -0.5834661     1.5247922
H           5.2463748    -0.8488178     2.5297069
O           2.6260393     0.7695348    -2.0475593
22
272_C7H11N3O_11-0-1-2 (-30,) energy =    -512.8516458
C           2.4486890     0.2835328    -0.9265886
N           1.1778705     0.0756583    -0.4495731
C           0.7828255    -0.9989922     0.4586670
H           0.3785225    -1.8512898    -0.1080187
H          -0.0033348    -0.6329004     1.1290020
H           1.6305025    -1.3155847     1.0603662
C           0.0900388     0.6011470    -1.2677069
H          -0.7624945     0.8211726    -0.6170269
H          -0.2307192    -0.1221486    -2.0318711
H           0.4185466     1.5091392    -1.7714937
N           3.6348488    -0.4857308     1.1801116
C           3.6198725    -0.1136339    -0.0964033
N           4.9004575    -0.0611009    -0.6095419
C           5.3481478     0.3114888    -1.9513599
H           6.4163361     0.0918681    -2.0190561
H           5.1691677     1.3713865    -2.1350684
H           4.8049039    -0.2582465    -2.7052550
C           5.7430267    -0.4192273     0.4106316
H           6.8130438    -0.4587161     0.2684930
C           4.9453206    -0.6751967     1.5028667
H           5.2471861    -0.9847077     2.4944228
O           2.6489643     0.8795991    -1.9916822
22
272_C7H11N3O_11-0-1-2 (-15,) energy =    -512.8523205
C           2.4601554     0.2996405    -0.9397820
N           1.1844070     0.0192985    -0.5260202
C           0.7817501    -0.9301848     0.5061664
H           0.3137130    -1.8118893     0.0444515
H           0.0397717    -0.4590278     1.1630031
H           1.6378538    -1.2296973     1.1040563
C           0.0891718     0.5168642    -1.3493719
H          -0.6978229     0.9179370    -0.7001517
H          -0.3437990    -0.2898013    -1.9581952
H           0.4624367     1.2967784    -2.0103512
N           3.6510279    -0.5686639     1.1351521
C           3.6302613    -0.1276100    -0.1194082
N           4.9118089    -0.0300809    -0.6257597
C           5.3631205     0.4172090    -1.9437515
H           6.4327702     0.2063182    -2.0174420
H           5.1803205     1.4847793    -2.0702169
H           4.8255539    -0.1124960    -2.7297319
C           5.7573656    -0.4349289     0.3742660
H           6.8275451    -0.4571461     0.2299370
C           4.9631709    -0.7604785     1.4494851
H           5.2672671    -1.1204711     2.4230964
O           2.6773512     0.9427621    -1.9753497
22
272_C7H11N3O_11-0-1-2 (0,) energy =    -512.8523289
C           2.4421738     0.2387786    -0.9695926
N           1.1665629    -0.0689719    -0.5757516
C           0.7461452    -0.8131117     0.6060168
H           0.1692073    -1.6961985     0.2985387
H           0.0927455    -0.1827222     1.2247457
H           1.6075411    -1.1189901     1.1930182
C           0.0681528     0.3965606    -1.4131698
H          -0.5895330     1.0617093    -0.8379592
H          -0.5280650    -0.4576476    -1.7602962
H           0.4738665     0.9323262    -2.2688123
N           3.6515051    -0.7468837     1.0490865
C           3.6197201    -0.1936157    -0.1604386
N           4.9019208    -0.0037572    -0.6423548
C           5.3536315     0.5690004    -1.9114108
H           6.4409074     0.4667526    -1.9507864
H           5.0722880     1.6199024    -1.9795765
H           4.8994257     0.0431397    -2.7508156
C           5.7546508    -0.4687285     0.3245510
H           6.8258809    -0.4379179     0.1901827
C           4.9668927    -0.9202468     1.3575951
H           5.2773226    -1.3569633     2.2971838
O           2.6593714     0.8753362    -2.0098746
22
272_C7H11N3O_11-0-1-2 (15,) energy =    -512.8523205
C           2.6168590    -0.8176065    -0.2283186
N           1.2640835    -0.6463288    -0.0942041
C           0.4870651     0.5379036    -0.4447697
H          -0.2050207     0.7730772     0.3735614
H          -0.1100561     0.3425095    -1.3474933
H           1.1414915     1.3900515    -0.6049684
C           0.4641044    -1.8317013     0.1885414
H          -0.0586071    -2.1786362    -0.7143692
H          -0.2873132    -1.5878616     0.9485550
H           1.1148151    -2.6268458     0.5474390
N           3.2272271     1.6508732    -0.3357477
C           3.5063920     0.3566442    -0.4619208
N           4.8332860     0.1722089    -0.7989731
C           5.5752680    -1.0685469    -1.0244515
H           6.5574571    -0.8004043    -1.4212635
H           5.0480349    -1.7028540    -1.7364979
H           5.6846655    -1.6250811    -0.0930989
C           5.3907214     1.4216129    -0.8836738
H           6.4309553     1.5559636    -1.1414953
C           4.3875735     2.3174392    -0.5938238
H           4.4420677     3.3971817    -0.5595540
O           3.1408323    -1.9344517    -0.1220715
22
272_C7H11N3O_11-0-1-2 (30,) energy =    -512.8516458
C           2.5998951    -0.8024920    -0.2352981
N           1.2602855    -0.6004839    -0.0108561
C           0.4781736     0.5213474    -0.5262486
H          -0.2843243     0.7973995     0.2111879
H          -0.0348082     0.2360911    -1.4570994
H           1.1197175     1.3812920    -0.6987180
C           0.4735406    -1.7898669     0.2977857
H           0.1023668    -2.2804304    -0.6141171
H          -0.3857810    -1.4925927     0.9075424
H           1.0895053    -2.5027723     0.8441574
N           3.2255562     1.6562579    -0.2402002
C           3.4964491     0.3695487    -0.4381068
N           4.8122694     0.1956466    -0.8180331
C           5.5358298    -1.0393622    -1.1195941
H           6.5135464    -0.7629276    -1.5214602
H           4.9883759    -1.6312899    -1.8530693
H           5.6556219    -1.6434077    -0.2196249
C           5.3754077     1.4449050    -0.8520857
H           6.4108646     1.5876464    -1.1243969
C           4.3836138     2.3290953    -0.4923843
H           4.4458021     3.4054904    -0.4051517
O           3.1004501    -1.9322190    -0.1806053
22
272_C7H11N3O_11-0-1-2 (45,) energy =    -512.8497657
C           2.5940464    -0.8028576    -0.2760186
N           1.2748316    -0.5629167     0.0508355
C           0.4811078     0.4820061    -0.6001529
H          -0.3305246     0.7842867     0.0702560
H           0.0345487     0.1073375    -1.5339245
H           1.1020271     1.3515783    -0.8022532
C           0.5001379    -1.7526613     0.3961822
H           0.1699422    -2.3057748    -0.4955725
H          -0.3828192    -1.4366252     0.9603316
H           1.1074997    -2.4218650     1.0050111
N           3.2428795     1.6387088    -0.1751198
C           3.5083797     0.3602728    -0.4258273
N           4.8209917     0.1946127    -0.8189252
C           5.5333529    -1.0334189    -1.1701081
H           6.5153382    -0.7509489    -1.5568657
H           4.9822478    -1.5887498    -1.9290392
H           5.6451406    -1.6760263    -0.2957869
C           5.3913479     1.4407435    -0.7999548
H           6.4280105     1.5886805    -1.0649674
C           4.4041347     2.3146698    -0.4014609
H           4.4734522     3.3860520    -0.2688836
O           3.0596140    -1.9465625    -0.2984546
22
272_C7H11N3O_11-0-1-2 (60,) energy =    -512.8461271
C           2.5342308    -0.7596253    -0.3584219
N           1.2421938    -0.4786132     0.0707911
C           0.4204500     0.4690999    -0.6921198
H          -0.4109967     0.8071634    -0.0652823
H           0.0047884    -0.0059519    -1.5941887
H           1.0161686     1.3381185    -0.9672392
C           0.4825389    -1.6629795     0.4740312
H           0.1496032    -2.2629712    -0.3857879
H          -0.3967349    -1.3284562     1.0331348
H           1.1000305    -2.2973339     1.1107099
N           3.2226821     1.6510945    -0.1298938
C           3.4783520     0.3824265    -0.4345781
N           4.7895895     0.2195799    -0.8329299
C           5.4835942    -1.0021403    -1.2372608
H           6.4944933    -0.7266524    -1.5463436
H           4.9614898    -1.4806530    -2.0667609
H           5.5249710    -1.7111125    -0.4096073
C           5.3730235     1.4569972    -0.7562283
H           6.4139056     1.6051959    -1.0043714
C           4.3916515     2.3228611    -0.3234214
H           4.4730946     3.3863576    -0.1425318
O           2.9499594    -1.9136170    -0.4788470
22
272_C7H11N3O_11-0-1-2 (75,) energy =    -512.8404134
C           2.5128547    -0.7233905    -0.4240266
N           1.2433776    -0.4110231     0.0882316
C           0.3803659     0.3944472    -0.7888759
H          -0.4856388     0.7421798    -0.2170815
H           0.0205211    -0.1919701    -1.6489133
H           0.9291195     1.2691172    -1.1415383
C           0.5295724    -1.5961391     0.5766551
H           0.2016594    -2.2631132    -0.2340740
H          -0.3490622    -1.2537057     1.1321899
H           1.1769554    -2.1663977     1.2449819
N           3.2531863     1.6443120    -0.0614009
C           3.4904872     0.3868694    -0.4238930
N           4.7994740     0.2208338    -0.8300009
C           5.4685992    -0.9939215    -1.2916709
H           6.4926733    -0.7305075    -1.5655632
H           4.9503146    -1.4100821    -2.1566163
H           5.4757500    -1.7499449    -0.5052880
C           5.4030249     1.4422308    -0.6918010
H           6.4483676     1.5837572    -0.9251355
C           4.4331736     2.3036310    -0.2214872
H           4.5332019     3.3557224     0.0101434
O           2.8729256    -1.8775916    -0.6490321
22
272_C7H11N3O_11-0-1-2 (90,) energy =    -512.8334167
C           2.4870689    -0.6588032    -0.4838054
N           1.2219712    -0.3216346     0.0673353
C           0.3150263     0.2870244    -0.9185340
H          -0.5850114     0.6399029    -0.4053598
H           0.0179670    -0.4292189    -1.7017829
H           0.8011679     1.1496821    -1.3821301
C           0.5781325    -1.4913126     0.6822056
H           0.2773071    -2.2560988    -0.0487014
H          -0.3104692    -1.1409929     1.2169933
H           1.2606672    -1.9520234     1.4001749
N           3.3021185     1.6455409     0.0450424
C           3.5012829     0.4074931    -0.4013219
N           4.8057614     0.2303977    -0.8236596
C           5.4339224    -0.9700344    -1.3714830
H           6.4674823    -0.7242017    -1.6250951
H           4.9037548    -1.3049849    -2.2640641
H           5.4134409    -1.7804867    -0.6411498
C           5.4446860     1.4195172    -0.6049416
H           6.4941104     1.5455141    -0.8294525
C           4.5001217     2.2767586    -0.0744134
H           4.6335000     3.3073053     0.2271078
O           2.7890172    -1.7998386    -0.8197085
22
272_C7H11N3O_11-0-1-2 (105,) energy =    -512.8337386
C           2.5130351    -0.9032196    -0.9792863
N           1.2003238    -0.9360163    -0.4861617
C           0.1925342    -0.3463532    -1.3677234
H           0.1482871     0.7476044    -1.2472811
H          -0.7931472    -0.7635771    -1.1324436
H           0.4306973    -0.5903441    -2.4048982
C           0.9395243    -0.6567823     0.9268542
H           0.0265619    -1.1942146     1.2124611
H           0.8128024     0.4115207     1.1398966
H           1.7609801    -1.0327002     1.5401189
N           3.1737204     1.1281443     0.3355354
C           3.4754879     0.0719203    -0.4149066
N           4.8200765     0.0499606    -0.7269052
C           5.5478569    -0.9182464    -1.5445487
H           6.6167005    -0.7276283    -1.4243007
H           5.2638412    -0.8235375    -2.5937440
H           5.3182385    -1.9342727    -1.2213566
C           5.3708827     1.1575292    -0.1416273
H           6.4243462     1.3790895    -0.2333508
C           4.3402543     1.8094799     0.5040066
H           4.3869270     2.7255721     1.0775902
O           2.8245991    -1.5478504    -1.9779657
22
272_C7H11N3O_11-0-1-2 (120,) energy =    -512.8395914
C           2.4975821    -0.8120701    -0.9941672
N           1.2120664    -0.8571059    -0.4688631
C           0.1244390    -0.5070516    -1.3792963
H          -0.1018454     0.5685236    -1.3172850
H          -0.7812470    -1.0675981    -1.1202435
H           0.4133080    -0.7641822    -2.3989416
C           0.9270424    -0.5222471     0.9243846
H           0.0525691    -1.1059858     1.2382273
H           0.7196482     0.5446804     1.0716553
H           1.7706436    -0.7948669     1.5588965
N           3.2457942     1.1290503     0.4180293
C           3.4971862     0.1021642    -0.3883924
N           4.8349682     0.0457156    -0.7218074
C           5.5163472    -0.9048486    -1.5981308
H           6.5929899    -0.7744413    -1.4665740
H           5.2398458    -0.7320661    -2.6393548
H           5.2361442    -1.9260414    -1.3381341
C           5.4361155     1.1020048    -0.0911325
H           6.4957252     1.2888370    -0.1888230
C           4.4403998     1.7577440     0.6016717
H           4.5288296     2.6414828     1.2193946
O           2.7743888    -1.3883851    -2.0475642
22
272_C7H11N3O_11-0-1-2 (135,) energy =    -512.8451016
C           2.4642937    -0.6996073    -1.0131801
N           1.2006693    -0.7579824    -0.4620584
C           0.0667345    -0.6545553    -1.3745299
H          -0.3433654     0.3661133    -1.3571974
H          -0.7278306    -1.3510167    -1.0811218
H           0.3981612    -0.9029674    -2.3823474
C           0.8912783    -0.3867445     0.9148086
H           0.0494159    -1.0057160     1.2490700
H           0.6184502     0.6712843     1.0128633
H           1.7456173    -0.5765605     1.5624852
N           3.2936145     1.1429243     0.4925443
C           3.4978413     0.1493878    -0.3667938
N           4.8292449     0.0574635    -0.7156274
C           5.4687858    -0.8716597    -1.6451642
H           6.5499440    -0.7973650    -1.5064814
H           5.2027550    -0.6276650    -2.6747830
H           5.1419835    -1.8920486    -1.4439430
C           5.4776541     1.0542459    -0.0354018
H           6.5434049     1.2020622    -0.1325784
C           4.5148716     1.7122966     0.6988636
H           4.6428176     2.5581642     1.3610735
O           2.7182446    -1.2256541    -2.1010004
22
272_C7H11N3O_11-0-1-2 (150,) energy =    -512.8493100
C           2.4399089    -0.5793444    -1.0392431
N           1.1869939    -0.6362901    -0.4804783
C           0.0471561    -0.7872432    -1.3762596
H          -0.5466591     0.1376547    -1.3875750
H          -0.6009538    -1.6082600    -1.0448352
H           0.4125143    -1.0057865    -2.3786222
C           0.8446084    -0.2515422     0.8834712
H           0.0508741    -0.9219172     1.2355539
H           0.4849256     0.7836887     0.9417723
H           1.7076301    -0.3442557     1.5384088
N           3.3400755     1.1619098     0.5534403
C           3.5017816     0.2039710    -0.3540706
N           4.8280954     0.0738764    -0.7097162
C           5.4326343    -0.8341797    -1.6829378
H           6.5155336    -0.8085914    -1.5398537
H           5.1791927    -0.5303813    -2.6996842
H           5.0652472    -1.8492035    -1.5320275
C           5.5184234     1.0065157     0.0194732
H           6.5896186     1.1125213    -0.0717637
C           4.5851003     1.6665554     0.7877646
H           4.7483805     2.4711830     1.4922173
O           2.6851167    -1.0794428    -2.1432632
22
272_C7H11N3O_11-0-1-2 (165,) energy =    -512.8516566
C           2.4265711    -0.4627279    -1.0717308
N           1.1707673    -0.5047921    -0.5268555
C           0.0663246    -0.9099266    -1.3862807
H          -0.6965141    -0.1205181    -1.4064100
H          -0.4013618    -1.8301134    -1.0113954
H           0.4458716    -1.0866056    -2.3911467
C           0.7845347    -0.1157743     0.8235311
H           0.1320494    -0.8946793     1.2387058
H           0.2305614     0.8325586     0.8184201
H           1.6580392     0.0097290     1.4560898
N           3.4027313     1.1715951     0.6020398
C           3.5164341     0.2529488    -0.3525398
N           4.8359186     0.0771957    -0.7158633
C           5.4054378    -0.8098342    -1.7294899
H           6.4896342    -0.8200896    -1.5941050
H           5.1534919    -0.4592627    -2.7311264
H           5.0099709    -1.8190216    -1.6155193
C           5.5705781     0.9344113     0.0618820
H           6.6459246     0.9901858    -0.0239599
C           4.6710140     1.5998377     0.8633936
H           4.8719953     2.3575887     1.6088032
O           2.6749198    -0.9599271    -2.1777717
22
272_C7H11N3O_11-0-1-2 (180,) energy =    -512.8523669
C           2.4880362    -0.6008036    -0.8630190
N           1.1929651    -0.4670567    -0.4365704
C           0.1592107    -1.1718205    -1.1842837
H          -0.4865410    -0.4575988    -1.7138420
H          -0.4658255    -1.7521558    -0.4941647
H           0.6302325    -1.8360101    -1.9060450
C           0.6846027     0.4078291     0.6139161
H           0.0887328    -0.1820339     1.3227767
H           0.0278256     1.1730868     0.1760787
H           1.5038061     0.8813920     1.1475370
N           3.5862406     0.7078820     1.0292474
C           3.6015648     0.0902671    -0.1488877
N           4.8740512     0.1008373    -0.6884625
C           5.3622077    -0.4594231    -1.9492433
H           6.4002489    -0.1409272    -2.0724519
H           4.7615684    -0.0996392    -2.7842152
H           5.3017967    -1.5478563    -1.9344301
C           5.6723196     0.7622931     0.2083478
H           6.7250870     0.9119443     0.0190475
C           4.8624997     1.1260361     1.2588938
H           5.1308875     1.6637134     2.1582357
O           2.7757437    -1.3010167    -1.8433215
