25
395_C9H14N2_0-13-21-19 (-165,) energy =    -460.9007787
C           1.0177037    -0.7064384     0.3954995
C           0.4978953     0.3922681     1.3416398
H          -0.5591908     0.5969769     1.1337971
H           1.0696165     1.3123820     1.2107542
H           0.5885186     0.0702900     2.3850183
C           0.8731316    -0.2684018    -1.0757015
H          -0.1777477    -0.0604745    -1.3096224
H           1.2223904    -1.0586157    -1.7510952
H           1.4560864     0.6355594    -1.2656153
C           0.2162487    -1.9981423     0.6309101
H          -0.8465400    -1.8253843     0.4352514
H           0.3207930    -2.3411565     1.6669482
H           0.5509654    -2.8023529    -0.0376769
N           2.4224952    -1.0413745     0.7240925
H           2.6240259    -2.0319319     0.7150151
C           5.7671599     1.3468240     0.2455931
H           6.6141080     2.0141520     0.1255032
C           5.9357706    -0.0274771     0.4633733
H           6.9311297    -0.4618543     0.5150719
C           4.8235067    -0.8366353     0.6082906
H           4.9280608    -1.9055810     0.7778183
C           3.5347141    -0.2485108     0.5388555
N           3.3685102     1.0675359     0.3224897
C           4.4648374     1.8262986     0.1835841
H           4.2770270     2.8854453     0.0102594
25
395_C9H14N2_0-13-21-19 (-150,) energy =    -460.8999468
C           1.0302171    -0.7045401     0.4355008
C           0.4322175     0.4169681     1.3048260
H          -0.6083490     0.6047604     1.0136363
H           1.0066444     1.3373821     1.1894839
H           0.4492843     0.1275680     2.3613125
C           0.9902526    -0.3149120    -1.0549166
H          -0.0432087    -0.1355259    -1.3738647
H           1.4032373    -1.1170637    -1.6786802
H           1.5672934     0.5959162    -1.2324381
C           0.2276643    -1.9979706     0.6555658
H          -0.8235490    -1.8411196     0.3944197
H           0.2758689    -2.3131939     1.7042293
H           0.6072782    -2.8159227     0.0286050
N           2.4146897    -1.0106422     0.8832813
H           2.6227828    -2.0001813     0.8255531
C           5.7655328     1.3308234     0.2098544
H           6.6138572     1.9877613     0.0486051
C           5.9174468    -0.0573968     0.3159048
H           6.9000790    -0.5147626     0.2307737
C           4.8011320    -0.8518070     0.5139704
H           4.8911732    -1.9328130     0.5890006
C           3.5321215    -0.2332104     0.6289519
N           3.3804459     1.0966041     0.5111928
C           4.4759401     1.8404200     0.3071569
H           4.3003817     2.9119214     0.2170305
25
395_C9H14N2_0-13-21-19 (-135,) energy =    -460.8979063
C           1.0426211    -0.7043048     0.4626822
C           0.3813454     0.4469521     1.2414056
H          -0.6379961     0.6161047     0.8734197
H           0.9599183     1.3654397     1.1306160
H           0.3294935     0.2009952     2.3075846
C           1.1013490    -0.3757236    -1.0411373
H           0.0909985    -0.2233032    -1.4382015
H           1.5663589    -1.1944712    -1.6039390
H           1.6772579     0.5366719    -1.2186883
C           0.2377520    -1.9953380     0.6840782
H          -0.7969071    -1.8596176     0.3536215
H           0.2252410    -2.2678380     1.7454464
H           0.6608696    -2.8340769     0.1149521
N           2.4010312    -0.9753048     1.0187344
H           2.6166221    -1.9644007     0.9522812
C           5.7550926     1.3223648     0.1909113
H           6.6048404     1.9691841    -0.0014563
C           5.8699269    -0.0715582     0.1614143
H           6.8208493    -0.5452467    -0.0695140
C           4.7490226    -0.8505041     0.4030574
H           4.8067301    -1.9355576     0.3643645
C           3.5257212    -0.2133884     0.7148540
N           3.4070827     1.1250035     0.7200726
C           4.4984408     1.8554521     0.4605392
H           4.3512086     2.9349028     0.4733836
25
395_C9H14N2_0-13-21-19 (-120,) energy =    -460.8949808
C           1.0531954    -0.7125220     0.4764975
C           0.3687995     0.4934836     1.1422799
H          -0.6256005     0.6520045     0.7073860
H           0.9660384     1.3975681     1.0114838
H           0.2557445     0.3165466     2.2170968
C           1.1904009    -0.4842542    -1.0406795
H           0.2036676    -0.3527921    -1.4996984
H           1.6771943    -1.3390866    -1.5264803
H           1.7821431     0.4119025    -1.2513789
C           0.2244081    -1.9791347     0.7431260
H          -0.7923928    -1.8581608     0.3557832
H           0.1617104    -2.1801133     1.8181639
H           0.6644764    -2.8573903     0.2515177
N           2.3828441    -0.9555910     1.1209281
H           2.6124463    -1.9410520     1.0240974
C           5.7262486     1.3411519     0.2108851
H           6.5742315     1.9872457     0.0077148
C           5.7848378    -0.0378201    -0.0063817
H           6.6856294    -0.5001589    -0.4022826
C           4.6641569    -0.8130870     0.2591278
H           4.6726182    -1.8840701     0.0725932
C           3.5123470    -0.1944007     0.7908978
N           3.4450010     1.1347320     0.9745231
C           4.5259128     1.8668128     0.6832280
H           4.4226405     2.9393853     0.8444615
25
395_C9H14N2_0-13-21-19 (-105,) energy =    -460.8915558
C           1.0712007    -0.7438085     0.4699821
C           0.4254520     0.5497507     0.9913662
H          -0.5473564     0.7048301     0.5094708
H           1.0601481     1.4161879     0.7938780
H           0.2760849     0.4883353     2.0739543
C           1.2497906    -0.6748726    -1.0591159
H           0.2797716    -0.5542833    -1.5553192
H           1.7118211    -1.5920493    -1.4461134
H           1.8822673     0.1712407    -1.3473936
C           0.1836869    -1.9427188     0.8394677
H          -0.8174336    -1.8248862     0.4116486
H           0.0891635    -2.0291553     1.9268498
H           0.6004057    -2.8831077     0.4537494
N           2.3740649    -0.9740756     1.1757108
H           2.6182262    -1.9527876     1.0348526
C           5.6929168     1.3797580     0.2824517
H           6.5364631     2.0369201     0.0959781
C           5.6733392     0.0628994    -0.1799877
H           6.5036904    -0.3366355    -0.7568464
C           4.5590939    -0.7264586     0.0804285
H           4.5028338    -1.7464123    -0.2908760
C           3.5047018    -0.1943829     0.8494596
N           3.5113593     1.0799935     1.2726893
C           4.5773684     1.8340653     0.9842144
H           4.5375508     2.8614883     1.3445258
25
395_C9H14N2_0-13-21-19 (-90,) energy =    -460.8935206
C           1.1199953    -0.7475510     0.4325005
C           1.6343126    -1.4981316     1.6769455
H           0.8301461    -1.6242192     2.4119787
H           2.4536656    -0.9552443     2.1588696
H           2.0090209    -2.4925981     1.4084861
C           0.6062722     0.6436921     0.8319597
H          -0.2244693     0.5487414     1.5401064
H           0.2491146     1.1912249    -0.0470051
H           1.3877654     1.2389192     1.3158145
C          -0.0172002    -1.5434207    -0.2268546
H          -0.8535829    -1.6722588     0.4689001
H           0.3235931    -2.5430945    -0.5256120
H          -0.3805727    -1.0267215    -1.1209853
N           2.1794578    -0.6110693    -0.6211752
H           2.4242582    -1.5635149    -0.8958214
C           5.8799976     1.1151605     0.2066167
H           6.8709696     1.5086475     0.4107073
C           4.8203056     1.9523001    -0.1511293
H           4.9698730     3.0246031    -0.2479682
C           3.5768874     1.3919567    -0.4199401
H           2.7405098     1.9985388    -0.7488597
C           3.4125539     0.0031637    -0.2776498
N           4.4348313    -0.8075668     0.0416578
C           5.6334822    -0.2543186     0.2691964
H           6.4358605    -0.9487726     0.5149604
25
395_C9H14N2_0-13-21-19 (-75,) energy =    -460.8955131
C           1.1000533    -0.7299849     0.4260365
C           1.5789912    -1.3760966     1.7416211
H           0.7519697    -1.4687676     2.4558610
H           2.3662140    -0.7757768     2.2103101
H           1.9857973    -2.3777573     1.5603587
C           0.5194719     0.6644565     0.7069942
H          -0.3757299     0.5745471     1.3325164
H           0.2381157     1.1626978    -0.2270438
H           1.2305787     1.3010212     1.2422674
C           0.0168314    -1.6047768    -0.2259876
H          -0.8463846    -1.7108999     0.4398496
H           0.3982177    -2.6116152    -0.4389315
H          -0.3203321    -1.1618869    -1.1687977
N           2.2062601    -0.6523948    -0.5787768
H           2.4441005    -1.6093414    -0.8382985
C           5.9236301     1.0645944     0.1608060
H           6.9225456     1.4515996     0.3356016
C           4.8193601     1.9124374     0.0397925
H           4.9405551     2.9909231     0.1026123
C           3.5639817     1.3678256    -0.1999707
H           2.7010859     2.0029433    -0.3600030
C           3.4342312    -0.0328357    -0.2695190
N           4.4977877    -0.8503304    -0.1743072
C           5.7036059    -0.3034138     0.0235577
H           6.5353229    -1.0046042     0.0802379
25
395_C9H14N2_0-13-21-19 (-60,) energy =    -460.8965600
C           1.0926345    -0.6833503     0.4249103
C           1.5606219    -1.1591506     1.8145354
H           0.7146469    -1.2306078     2.5085179
H           2.2903207    -0.4628877     2.2418133
H           2.0335573    -2.1458602     1.7500897
C           0.3820760     0.6774025     0.5404215
H          -0.5634105     0.5592751     1.0819916
H           0.1638523     1.0829108    -0.4529446
H           0.9793991     1.4082832     1.0930720
C           0.1066017    -1.7018855    -0.1730584
H          -0.7756386    -1.8040677     0.4671703
H           0.5689693    -2.6930305    -0.2637604
H          -0.2210693    -1.3840679    -1.1686776
N           2.2263591    -0.6205153    -0.5430027
H           2.4351924    -1.5601843    -0.8739693
C           5.9997140     0.9963223     0.1032798
H           7.0145918     1.3551905     0.2409962
C           4.8934924     1.8295704     0.2881436
H           5.0277773     2.8727413     0.5633355
C           3.6133032     1.3284613     0.0891750
H           2.7497980     1.9760301     0.1703554
C           3.4640931    -0.0294617    -0.2597167
N           4.5292190    -0.8308729    -0.4532385
C           5.7526913    -0.3175825    -0.2861532
H           6.5789320    -1.0041800    -0.4675545
25
395_C9H14N2_0-13-21-19 (-45,) energy =    -460.8976313
C           1.0616602    -0.6400673     0.4159723
C           1.4928923    -0.9451694     1.8639008
H           0.6170395    -1.0094662     2.5199311
H           2.1528694    -0.1669388     2.2597705
H           2.0293729    -1.8993793     1.9146254
C           0.2561325     0.6732824     0.3538539
H          -0.6727513     0.5746637     0.9275583
H           0.0014817     0.9133219    -0.6833294
H           0.8072306     1.5203284     0.7724115
C           0.1684317    -1.7805141    -0.1042018
H          -0.7439156    -1.8577638     0.4955289
H           0.6888544    -2.7448045    -0.0494452
H          -0.1199131    -1.6018766    -1.1462837
N           2.2210035    -0.5893345    -0.5136024
H           2.3779302    -1.4829381    -0.9703500
C           6.0371162     0.9321581     0.0582295
H           7.0624916     1.2729057     0.1577518
C           4.9619178     1.6789109     0.5462944
H           5.1304665     2.6353886     1.0350196
C           3.6650400     1.2077768     0.3890471
H           2.8233094     1.7960422     0.7317760
C           3.4697533    -0.0399072    -0.2409166
N           4.5050160    -0.7605263    -0.7174230
C           5.7406639    -0.2727128    -0.5744936
H           6.5385736    -0.8907323    -0.9851925
25
395_C9H14N2_0-13-21-19 (-30,) energy =    -460.8983708
C           1.0701295    -0.6373933     0.4358741
C           1.4144877    -0.8941887     1.9173438
H           0.5036947    -0.8929395     2.5272744
H           2.0875974    -0.1309248     2.3184207
H           1.9035828    -1.8676748     2.0343746
C           0.3087501     0.6944034     0.2703552
H          -0.6381930     0.6601316     0.8214412
H           0.0899826     0.8749793    -0.7869445
H           0.8756616     1.5504523     0.6465465
C           0.1686040    -1.7754769    -0.0764306
H          -0.7674636    -1.8070247     0.4897619
H           0.6622788    -2.7487132     0.0353360
H          -0.0761818    -1.6306143    -1.1348775
N           2.2708967    -0.6651279    -0.4269152
H           2.4043759    -1.5393135    -0.9227202
C           6.0567900     0.9645162    -0.0131858
H           7.0751776     1.3351241     0.0389565
C           4.9990541     1.6203903     0.6207254
H           5.1745978     2.5333669     1.1845594
C           3.7095722     1.1135122     0.5249425
H           2.8847979     1.6319751     0.9962569
C           3.5033950    -0.0757567    -0.2089400
N           4.5239391    -0.7128785    -0.8216350
C           5.7499248    -0.1937153    -0.7241428
H           6.5336048    -0.7454132    -1.2428511
25
395_C9H14N2_0-13-21-19 (-15,) energy =    -460.8984943
C           1.0693865    -0.6574472     0.4653273
C           1.3169464    -0.8810590     1.9726211
H           0.3720104    -0.8326440     2.5260767
H           1.9908125    -0.1306379     2.3950762
H           1.7647198    -1.8662210     2.1429534
C           0.3681067     0.6944157     0.2139380
H          -0.5968166     0.7229482     0.7331597
H           0.1902131     0.8336194    -0.8573506
H           0.9586815     1.5437883     0.5675281
C           0.1585130    -1.7819017    -0.0607148
H          -0.8051377    -1.7673216     0.4577410
H           0.6149489    -2.7656148     0.1034931
H          -0.0293422    -1.6611967    -1.1338637
N           2.3139575    -0.7584594    -0.3148677
H           2.4244912    -1.5966246    -0.8713599
C           6.0414524     1.0219274    -0.0767765
H           7.0454372     1.4330564    -0.0725723
C           5.0063163     1.5928908     0.6667755
H           5.1858446     2.4766492     1.2743183
C           3.7344603     1.0359944     0.6332244
H           2.9307463     1.4850931     1.2016208
C           3.5210397    -0.1131752    -0.1619990
N           4.5215902    -0.6705563    -0.8795351
C           5.7304059    -0.1080565    -0.8307115
H           6.4973395    -0.5973235    -1.4309291
25
395_C9H14N2_0-13-21-19 (0,) energy =    -460.8984500
C           1.0784724    -0.7013146     0.4808287
C           1.2277295    -0.8864190     2.0064319
H           0.2508800    -0.8051613     2.4969922
H           1.8876786    -0.1375339     2.4524663
H           1.6451293    -1.8741394     2.2290148
C           0.4334941     0.6616360     0.1484581
H          -0.5505056     0.7432701     0.6244916
H           0.3032609     0.7648822    -0.9339851
H           1.0407033     1.5029589     0.4931618
C           0.1704850    -1.8196981    -0.0627293
H          -0.8175703    -1.7706065     0.4051220
H           0.5973062    -2.8072473     0.1489082
H           0.0376440    -1.7235168    -1.1468671
N           2.3666991    -0.8664258    -0.2071379
H           2.4390949    -1.6250072    -0.8719889
C           6.0113689     1.0863897    -0.1427713
H           6.9946116     1.5430393    -0.1838557
C           5.0047304     1.5736406     0.6937451
H           5.1863783     2.4348208     1.3323426
C           3.7590567     0.9601678     0.7167115
H           2.9805495     1.3393354     1.3654580
C           3.5414698    -0.1586009    -0.1206623
N           4.5137037    -0.6328898    -0.9317586
C           5.6987266    -0.0203904    -0.9298860
H           6.4439631    -0.4451386    -1.6022758
25
395_C9H14N2_0-13-21-19 (15,) energy =    -460.8984938
C           1.0714499    -0.7569184     0.4860992
C           1.1127375    -0.9073236     2.0217491
H           0.1016183    -0.8275195     2.4373805
H           1.7280143    -0.1408368     2.5005028
H           1.5239749    -1.8847402     2.2941917
C           0.4835470     0.6113675     0.0794356
H          -0.5192492     0.7374854     0.5037344
H           0.4069083     0.6840748    -1.0109334
H           1.1009450     1.4443424     0.4268337
C           0.1775420    -1.8720242    -0.0868437
H          -0.8372136    -1.7929608     0.3152039
H           0.5722291    -2.8606965     0.1744238
H           0.1137902    -1.8011712    -1.1795070
N           2.4037220    -0.9765046    -0.1010507
H           2.4507738    -1.6396457    -0.8642224
C           5.9397906     1.1712156    -0.1590080
H           6.8955751     1.6793361    -0.2319019
C           4.9633905     1.5628773     0.7594837
H           5.1426197     2.3971915     1.4334061
C           3.7528427     0.8849623     0.8214735
H           3.0009770     1.1828178     1.5402967
C           3.5381959    -0.1966051    -0.0631982
N           4.4794003    -0.5754393    -0.9560846
C           5.6340967     0.0922447    -0.9863227
H           6.3567201    -0.2583309    -1.7230381
25
395_C9H14N2_0-13-21-19 (30,) energy =    -460.8983709
C           1.0794640    -0.7883500     0.4893715
C           1.0146342    -0.8990346     2.0270187
H          -0.0219095    -0.8022986     2.3702352
H           1.5991537    -0.1222911     2.5277605
H           1.3997215    -1.8709176     2.3518244
C           0.5688519     0.5875259     0.0144883
H          -0.4535576     0.7594356     0.3704139
H           0.5633506     0.6378242    -1.0800550
H           1.1944246     1.4051743     0.3840963
C           0.1889556    -1.8910906    -0.1117797
H          -0.8450683    -1.7759912     0.2278358
H           0.5407958    -2.8834787     0.1925203
H           0.1903143    -1.8436151    -1.2077420
N           2.4459042    -1.0731874     0.0007967
H           2.4774135    -1.6799710    -0.8107654
C           5.8867298     1.2249153    -0.1975561
H           6.8161201     1.7737364    -0.3080731
C           4.9663690     1.5264459     0.8088467
H           5.1662807     2.3263649     1.5176590
C           3.7902763     0.7956905     0.9168053
H           3.0860446     1.0123466     1.7094679
C           3.5477216    -0.2367841    -0.0162756
N           4.4347308    -0.5298380    -0.9910292
C           5.5630971     0.1801214    -1.0605647
H           6.2448234    -0.1033151    -1.8621207
25
395_C9H14N2_0-13-21-19 (45,) energy =    -460.8976311
C           1.0939455    -0.7995098     0.5077963
C           0.9482217    -0.8352960     2.0424240
H          -0.1049352    -0.7228011     2.3250894
H           1.5032202    -0.0302475     2.5325916
H           1.3149493    -1.7886225     2.4359798
C           0.6522083     0.5682306    -0.0485722
H          -0.3844225     0.7820702     0.2365913
H           0.7154486     0.5793451    -1.1425486
H           1.2798148     1.3797651     0.3327676
C           0.2061901    -1.9065591    -0.0883699
H          -0.8384273    -1.7601055     0.2037889
H           0.5267124    -2.8927598     0.2661059
H           0.2521890    -1.9008956    -1.1845209
N           2.4827390    -1.1450952     0.1044545
H           2.5007662    -1.7157848    -0.7356500
C           5.8396376     1.2658432    -0.2452636
H           6.7424131     1.8485410    -0.3964340
C           5.0137158     1.4621512     0.8643591
H           5.2654661     2.2066202     1.6156986
C           3.8720212     0.6874079     1.0218981
H           3.2452435     0.8073111     1.8964231
C           3.5596744    -0.2673395     0.0306071
N           4.3575100    -0.4625626    -1.0386872
C           5.4626049     0.2796206    -1.1536276
H           6.0752623     0.0747503    -2.0311055
25
395_C9H14N2_0-13-21-19 (60,) energy =    -460.8965600
C           1.0861576    -0.8005183     0.4382438
C           0.9402465    -0.6360228     1.9619024
H          -0.1204311    -0.5687866     2.2295586
H           1.4215292     0.2764062     2.3255675
H           1.3756625    -1.4938203     2.4848062
C           0.6410445     0.4880781    -0.2813438
H          -0.3943594     0.7415211    -0.0242454
H           0.7032138     0.3687024    -1.3691410
H           1.2763291     1.3343003     0.0017297
C           0.2101717    -1.9820912    -0.0132015
H          -0.8402618    -1.7984413     0.2348892
H           0.5269321    -2.9081268     0.4784794
H           0.2751439    -2.1299628    -1.0986925
N           2.4800861    -1.1816331     0.0669350
H           2.4715435    -1.6290378    -0.8473317
C           5.7970376     1.3125739    -0.1504937
H           6.6792450     1.9321928    -0.2750727
C           5.1116243     1.2445448     1.0651426
H           5.4600303     1.8067998     1.9279616
C           3.9935424     0.4283030     1.1801224
H           3.4874145     0.3190861     2.1306377
C           3.5560291    -0.2852546     0.0454816
N           4.2235696    -0.2332193    -1.1232061
C           5.3151356     0.5353693    -1.2006131
H           5.8247239     0.5316523    -2.1635697
25
395_C9H14N2_0-13-21-19 (75,) energy =    -460.8955130
C           1.0554127    -0.8179878     0.4173517
C           0.9538923    -0.4445820     1.9042107
H          -0.0945697    -0.2738816     2.1731702
H           1.5041210     0.4735086     2.1316973
H           1.3438681    -1.2514231     2.5340962
C           0.5929742     0.3657436    -0.4558755
H          -0.4430689     0.6412589    -0.2247779
H           0.6479265     0.1115127    -1.5207760
H           1.2231215     1.2461458    -0.2898229
C           0.1742137    -2.0481744     0.1455119
H          -0.8731471    -1.8332007     0.3833682
H           0.5032925    -2.8992400     0.7505848
H           0.2217139    -2.3417483    -0.9109351
N           2.4478425    -1.2419713     0.0697800
H           2.4191917    -1.6210819    -0.8763166
C           5.7155350     1.3310808    -0.0552943
H           6.5782397     1.9823343    -0.1541482
C           5.1845215     1.0017884     1.1947018
H           5.6388153     1.3818940     2.1062389
C           4.0889130     0.1506952     1.2678652
H           3.6950090    -0.1712737     2.2242856
C           3.5155388    -0.3213745     0.0712453
N           4.0366658    -0.0232633    -1.1321115
C           5.1127434     0.7718059    -1.1789290
H           5.5064959     0.9734222    -2.1743886
25
395_C9H14N2_0-13-21-19 (90,) energy =    -460.8935205
C           1.0622694    -0.8089075     0.3924216
C           0.9580411    -0.3051144     1.8396227
H          -0.0789093    -0.0368346     2.0706621
H           1.5747761     0.5849664     2.0025446
H           1.2783162    -1.0810808     2.5433534
C           0.6244337     0.2994505    -0.5855539
H          -0.4148804     0.5938669    -0.3958404
H           0.6970463    -0.0425943    -1.6243919
H           1.2537744     1.1895842    -0.4859509
C           0.1691142    -2.0468035     0.2156099
H          -0.8786980    -1.8004641     0.4195708
H           0.4806149    -2.8465048     0.8952689
H           0.2265631    -2.4303794    -0.8111905
N           2.4609424    -1.2794834     0.1211791
H           2.4465489    -1.6676744    -0.8230894
C           5.6766958     1.3670695     0.0062485
H           6.5214869     2.0427039    -0.0851281
C           5.2891343     0.8441175     1.2423987
H           5.8392955     1.0933733     2.1461528
C           4.2112936    -0.0319347     1.2982763
H           3.9075658    -0.4997011     2.2281237
C           3.5147206    -0.3280518     0.1137584
N           3.8996149     0.1529121    -1.0799162
C           4.9581858     0.9729380    -1.1200463
H           5.2417114     1.3312372    -2.1088449
25
395_C9H14N2_0-13-21-19 (105,) energy =    -460.8915559
C           1.0899975    -0.7651498     0.2729061
C           1.0366244    -0.0297503     1.6261064
H           0.0077795     0.2638300     1.8648203
H           1.6497599     0.8773506     1.6096457
H           1.3991541    -0.6703916     2.4401116
C           0.5808563     0.1492715    -0.8525896
H          -0.4472159     0.4676264    -0.6420004
H           0.5954169    -0.3834807    -1.8086459
H           1.2108303     1.0350155    -0.9581255
C           0.2237806    -2.0331197     0.3321187
H          -0.8254924    -1.7728142     0.5065415
H           0.5407652    -2.6966473     1.1482174
H           0.2924149    -2.5886973    -0.6088530
N           2.4752150    -1.2381090    -0.0526670
H           2.6575778    -2.0485405     0.5366336
C           5.7073521     1.3756155     0.2211390
H           6.5372783     2.0751611     0.2290759
C           5.5674164     0.3931037     1.2026877
H           6.2845818     0.3127404     2.0157646
C           4.4763132    -0.4663423     1.1453615
H           4.3253681    -1.2229221     1.9109587
C           3.5721117    -0.3580392     0.0697418
N           3.6917151     0.6029855    -0.8604893
C           4.7295656     1.4414045    -0.7702837
H           4.7842616     2.2063997    -1.5441041
25
395_C9H14N2_0-13-21-19 (120,) energy =    -460.8949809
C           1.0786455    -0.7483075     0.2529293
C           0.9927134     0.1240645     1.5195697
H          -0.0465952     0.4100544     1.7187225
H           1.5786762     1.0412915     1.4055664
H           1.3680573    -0.4161343     2.3976439
C           0.5487377     0.0225234    -0.9681887
H          -0.4933543     0.3224379    -0.8033480
H           0.5930596    -0.6097929    -1.8612385
H           1.1528517     0.9119277    -1.1557547
C           0.2530123    -2.0307320     0.4427292
H          -0.8055248    -1.7862808     0.5779485
H           0.5800817    -2.5909541     1.3292148
H           0.3467212    -2.6830934    -0.4322997
N           2.4805693    -1.2044523    -0.0093988
H           2.6555955    -2.0404991     0.5416355
C           5.7311228     1.3677810     0.3061638
H           6.5620613     2.0653248     0.3338932
C           5.7042057     0.2248334     1.1093842
H           6.5165294     0.0117293     1.7997752
C           4.6084283    -0.6248864     1.0409951
H           4.5484861    -1.5059564     1.6750231
C           3.5746225    -0.3387994     0.1235576
N           3.5858482     0.7737443    -0.6294190
C           4.6368473     1.5945579    -0.5253086
H           4.5995527     2.4850382    -1.1519822
25
395_C9H14N2_0-13-21-19 (135,) energy =    -460.8979064
C           1.0604181    -0.7302363     0.2554980
C           0.9020219     0.2251370     1.4533361
H          -0.1501838     0.5046067     1.5814640
H           1.4803963     1.1405359     1.3013142
H           1.2417848    -0.2497732     2.3819692
C           0.5687498    -0.0587443    -1.0393402
H          -0.4878840     0.2197132    -0.9440087
H           0.6715937    -0.7478199    -1.8846124
H           1.1572754     0.8348136    -1.2536891
C           0.2509412    -2.0139795     0.5012203
H          -0.8156438    -1.7813256     0.5814231
H           0.5545553    -2.5065829     1.4347843
H           0.3857395    -2.7222013    -0.3241259
N           2.4763009    -1.1717771     0.0877974
H           2.6441838    -2.0247789     0.6107688
C           5.7489811     1.3669238     0.3358072
H           6.5829067     2.0609764     0.3543841
C           5.8056065     0.1299790     0.9865527
H           6.6921745    -0.1637716     1.5430090
C           4.7061907    -0.7133330     0.9396918
H           4.7164928    -1.6703188     1.4556702
C           3.5693342    -0.3164484     0.1987524
N           3.5028037     0.8811991    -0.4069223
C           4.5685515     1.6871455    -0.3278257
H           4.4654531     2.6477199    -0.8315251
25
395_C9H14N2_0-13-21-19 (150,) energy =    -460.8999467
C           1.0500112    -0.7240726     0.2823988
C           0.7990872     0.2757980     1.4278581
H          -0.2634079     0.5419592     1.4748762
H           1.3759227     1.1913379     1.2757102
H           1.0827765    -0.1591508     2.3939957
C           0.6331715    -0.1152271    -1.0691427
H          -0.4316224     0.1469554    -1.0515517
H           0.7988770    -0.8364140    -1.8770065
H           1.2178870     0.7812301    -1.2810349
C           0.2422517    -2.0094223     0.5291379
H          -0.8298018    -1.7890951     0.5313157
H           0.4911874    -2.4582022     1.5001464
H           0.4374150    -2.7493428    -0.2556016
N           2.4739231    -1.1491335     0.2303833
H           2.6336051    -2.0068061     0.7448830
C           5.7694348     1.3601519     0.3175010
H           6.6074849     2.0491369     0.3033421
C           5.8834079     0.0708303     0.8524327
H           6.8239038    -0.2707974     1.2775836
C           4.7810029    -0.7665299     0.8529715
H           4.8407900    -1.7681473     1.2718986
C           3.5682168    -0.3023977     0.2872433
N           3.4504784     0.9395233    -0.2117966
C           4.5295466     1.7332866    -0.1880933
H           4.3826949     2.7301307    -0.6025664
25
395_C9H14N2_0-13-21-19 (165,) energy =    -460.9007785
C           1.0313969    -0.7086839     0.3166948
C           0.6821927     0.3232776     1.4076756
H          -0.3834751     0.5777027     1.3638548
H           1.2630764     1.2379928     1.2702632
H           0.8951727    -0.0803171     2.4048319
C           0.7025647    -0.1517470    -1.0812578
H          -0.3652848     0.0887209    -1.1477786
H           0.9378836    -0.8942823    -1.8518256
H           1.2822659     0.7511274    -1.2797709
C           0.2270007    -1.9989375     0.5499572
H          -0.8459459    -1.7930741     0.4862246
H           0.4265335    -2.4185972     1.5448691
H           0.4740078    -2.7566030    -0.2029763
N           2.4562104    -1.1071494     0.3855868
H           2.6168222    -1.9875989     0.8555904
C           5.7766786     1.3592111     0.2794628
H           6.6199000     2.0396542     0.2242608
C           5.9248182     0.0339232     0.7109783
H           6.8996533    -0.3463342     1.0062602
C           4.8179660    -0.7936268     0.7653637
H           4.9068332    -1.8253271     1.0970536
C           3.5564485    -0.2768879     0.3739670
N           3.4086639     0.9955097    -0.0330000
C           4.4988102     1.7745393    -0.0731704
H           4.3265882     2.7964060    -0.4096764
25
395_C9H14N2_0-13-21-19 (180,) energy =    -460.9008236
C           1.0227175    -0.7004354     0.3536779
C           0.5832853     0.3654417     1.3769613
H          -0.4791510     0.6021134     1.2440151
H           1.1651744     1.2802384     1.2485513
H           0.7281449    -0.0013289     2.3996457
C           0.7802506    -0.2015566    -1.0846066
H          -0.2832107     0.0205715    -1.2336295
H           1.0765356    -0.9669328    -1.8110350
H           1.3583469     0.7043139    -1.2770833
C           0.2252030    -1.9947783     0.5876163
H          -0.8458820    -1.8060483     0.4668412
H           0.3860056    -2.3804826     1.6022204
H           0.5129514    -2.7723783    -0.1310084
N           2.4416731    -1.0604433     0.5503358
H           2.6236943    -2.0231543     0.7913182
C           5.7834590     1.3530951     0.2568326
H           6.6302880     2.0254323     0.1683128
C           5.9458257    -0.0006156     0.5839202
H           6.9369326    -0.4121903     0.7584680
C           4.8347664    -0.8172432     0.6847045
H           4.9346489    -1.8702204     0.9370100
C           3.5509540    -0.2581542     0.4526309
N           3.3901247     1.0398099     0.1388288
C           4.4868175     1.8054096     0.0484621
H           4.3037305     2.8484326    -0.2080563
