25
395_C9H14N2_1-0-13-21 (-165,) energy =    -460.8984736
C           1.3588905    -0.7352883     0.7850881
C           0.7593080    -1.8167711     1.7024286
H          -0.3171569    -1.6615457     1.8243382
H           1.2192718    -1.7865033     2.6976852
H           0.9142388    -2.8158512     1.2788602
C           1.1461940     0.6457463     1.4404601
H           0.0757351     0.8513513     1.5558209
H           1.5800307     1.4550446     0.8468085
H           1.6093029     0.6730518     2.4329806
C           0.6545199    -0.8105706    -0.5855775
H          -0.4228946    -0.6459955    -0.4686792
H           0.8091542    -1.7965054    -1.0356529
H           1.0284490    -0.0604402    -1.2880018
N           2.7898473    -1.0740437     0.6561526
H           3.1351181    -1.7402669     1.3368130
C           6.0997357     1.0296138    -0.6711140
H           7.0151575     1.5230812    -0.9803526
C           4.8458202     1.4500249    -1.1200423
H           4.7579682     2.2914986    -1.8030429
C           3.6988403     0.7881503    -0.7012834
H           2.7280636     1.1004693    -1.0635618
C           3.8341479    -0.3016463     0.1880100
N           5.0450270    -0.7093354     0.6259796
C           6.1291699    -0.0602077     0.1966433
H           7.0789891    -0.4346912     0.5777771
25
395_C9H14N2_1-0-13-21 (-150,) energy =    -460.8974344
C           1.3529390    -0.7733317     0.7451639
C           0.8197190    -1.7986447     1.7622618
H          -0.2379197    -1.6140251     1.9755367
H           1.3724798    -1.7359107     2.7070626
H           0.9125941    -2.8196015     1.3726829
C           1.2521384     0.6294227     1.3796341
H           0.2084081     0.8507837     1.6300486
H           1.6076314     1.4179734     0.7115583
H           1.8426606     0.6788410     2.3011696
C           0.5157584    -0.8485343    -0.5462673
H          -0.5360143    -0.6172712    -0.3403797
H           0.5744256    -1.8525356    -0.9788196
H           0.8715135    -0.1390414    -1.3003887
N           2.7555876    -1.1749641     0.4652467
H           3.1030679    -1.8711110     1.1165558
C           6.0706857     1.0980382    -0.5407700
H           6.9834184     1.6393321    -0.7671549
C           4.8371939     1.4765644    -1.0776086
H           4.7656466     2.3270753    -1.7511572
C           3.6956331     0.7510784    -0.7647504
H           2.7417610     1.0092917    -1.2086932
C           3.8120411    -0.3468149     0.1158980
N           5.0014990    -0.7199816     0.6294133
C           6.0869178    -0.0163460     0.2946201
H           7.0229381    -0.3647693     0.7302930
25
395_C9H14N2_1-0-13-21 (-135,) energy =    -460.8953449
C           1.3419066    -0.7860239     0.6901148
C           0.9268860    -1.7520114     1.8156901
H          -0.1094326    -1.5698098     2.1187421
H           1.5687294    -1.6238736     2.6946266
H           0.9979679    -2.7954241     1.4833462
C           1.2714214     0.6461769     1.2556667
H           0.2589284     0.8387770     1.6275915
H           1.4969272     1.4103888     0.5083069
H           1.9708015     0.7725934     2.0891721
C           0.3940336    -0.9328717    -0.5147889
H          -0.6382630    -0.6873882    -0.2375715
H           0.4175092    -1.9586392    -0.8972291
H           0.6939707    -0.2660964    -1.3307559
N           2.7196235    -1.1878769     0.2848253
H           3.0545176    -1.9796840     0.8244684
C           6.0959463     1.1152911    -0.4005995
H           7.0209103     1.6632912    -0.5475980
C           4.8888918     1.5447570    -0.9603646
H           4.8534318     2.4405883    -1.5754454
C           3.7326492     0.8059890    -0.7522718
H           2.8007969     1.0894504    -1.2280079
C           3.8040558    -0.3507930     0.0543331
N           4.9683145    -0.7775600     0.5810870
C           6.0724925    -0.0621254     0.3424347
H           6.9890223    -0.4551008     0.7814627
25
395_C9H14N2_1-0-13-21 (-120,) energy =    -460.8936536
C           1.1133890    -0.8051072     0.6357535
C           0.6935487    -1.1620704     2.0753863
H          -0.3807051    -1.0006759     2.2271864
H           1.2394035    -0.5484349     2.8005948
H           0.9193048    -2.2119319     2.2904958
C           0.7534880     0.6544380     0.3163141
H          -0.3369863     0.7583953     0.3192273
H           1.1205351     0.9499296    -0.6719604
H           1.1473946     1.3599427     1.0518191
C           0.3557238    -1.7175562    -0.3515171
H          -0.7273424    -1.6045951    -0.2328134
H           0.5996028    -2.7726184    -0.1738236
H           0.6163489    -1.4740496    -1.3876830
N           2.5631602    -1.1163230     0.4733406
H           2.7002304    -1.9734856    -0.0526030
C           5.8000900     1.2572652    -0.5650544
H           6.6731301     1.8195688    -0.8798874
C           4.9306054     1.7364302     0.4191591
H           5.1217497     2.6881859     0.9088463
C           3.8322644     0.9768851     0.7971499
H           3.1878906     1.3032913     1.6043908
C           3.6004770    -0.2530179     0.1434203
N           4.4481972    -0.7273593    -0.7914365
C           5.5155738     0.0099072    -1.1146551
H           6.1747280    -0.4247475    -1.8655719
25
395_C9H14N2_1-0-13-21 (-105,) energy =    -460.8956937
C           1.1033330    -0.8026053     0.5837291
C           0.7993110    -1.0121907     2.0807287
H          -0.2577848    -0.8184495     2.2991548
H           1.4010190    -0.3417802     2.7050002
H           1.0344984    -2.0401707     2.3739803
C           0.7344110     0.6218892     0.1343544
H          -0.3410015     0.7795543     0.2728887
H           0.9672463     0.7683764    -0.9260051
H           1.2564538     1.3948907     0.7031810
C           0.2595087    -1.8039206    -0.2301291
H          -0.8070930    -1.6665890    -0.0245471
H           0.5208326    -2.8362229     0.0329397
H           0.4193774    -1.6693479    -1.3064383
N           2.5261742    -1.1616199     0.3197644
H           2.6062079    -1.9114609    -0.3597752
C           5.7927824     1.2789574    -0.4189674
H           6.6726343     1.8658447    -0.6616416
C           4.9358127     1.6349995     0.6267484
H           5.1429373     2.5110568     1.2364361
C           3.8268288     0.8484953     0.9053834
H           3.1839514     1.0755158     1.7482037
C           3.5773937    -0.2812828     0.0959226
N           4.4089224    -0.6367802    -0.9025029
C           5.4843903     0.1237279    -1.1326873
H           6.1302301    -0.2119239    -1.9434930
25
395_C9H14N2_1-0-13-21 (-90,) energy =    -460.8977428
C           1.0889314    -0.7994190     0.5224167
C           0.9283851    -0.9363710     2.0504612
H          -0.1121797    -0.7594167     2.3469369
H           1.5544349    -0.2209425     2.5934852
H           1.2173892    -1.9422793     2.3708160
C           0.6519962     0.5960972     0.0371199
H          -0.3973664     0.7720845     0.2998390
H           0.7491919     0.6724876    -1.0515635
H           1.2456938     1.3981878     0.4833008
C           0.1978893    -1.8596097    -0.1526768
H          -0.8473543    -1.7283345     0.1443825
H           0.5093521    -2.8696957     0.1380935
H           0.2514809    -1.7807542    -1.2453211
N           2.4783109    -1.1392282     0.1267943
H           2.5241382    -1.7957954    -0.6452918
C           5.8425241     1.2442031    -0.2833744
H           6.7499631     1.8164634    -0.4458104
C           4.9438247     1.5613499     0.7384367
H           5.1412343     2.3947227     1.4082692
C           3.7970801     0.7981033     0.9128028
H           3.1140581     1.0123578     1.7257014
C           3.5592824    -0.2765988     0.0280805
N           4.4270456    -0.5893835    -0.9557688
C           5.5316016     0.1501913    -1.0877249
H           6.2019869    -0.1497966    -1.8927005
25
395_C9H14N2_1-0-13-21 (-75,) energy =    -460.8985028
C           1.0701682    -0.7623494     0.4968609
C           1.0689977    -0.8885428     2.0349991
H           0.0483520    -0.7893413     2.4222132
H           1.6806580    -0.1217653     2.5181414
H           1.4606289    -1.8663038     2.3335897
C           0.5185831     0.6092397     0.0535575
H          -0.4932698     0.7593903     0.4474360
H           0.4732667     0.6672646    -1.0395313
H           1.1411759     1.4360918     0.4064469
C           0.1715371    -1.8716598    -0.0799607
H          -0.8500128    -1.7727350     0.2999424
H           0.5466866    -2.8621441     0.2021572
H           0.1308881    -1.8146757    -1.1746101
N           2.4153721    -1.0190438    -0.0497631
H           2.4524379    -1.6651996    -0.8286916
C           5.9215533     1.1767325    -0.1862985
H           6.8689801     1.6971237    -0.2793440
C           4.9646165     1.5490142     0.7603291
H           5.1513348     2.3790376     1.4374856
C           3.7649078     0.8547575     0.8476221
H           3.0297210     1.1336541     1.5910032
C           3.5397476    -0.2201412    -0.0419893
N           4.4617949    -0.5803637    -0.9614157
C           5.6082692     0.1003520    -1.0140019
H           6.3164484    -0.2361163    -1.7709669
25
395_C9H14N2_1-0-13-21 (-60,) energy =    -460.8984516
C           1.0720153    -0.6868547     0.4680059
C           1.2443257    -0.8733501     1.9910930
H           0.2758769    -0.7898401     2.4977182
H           1.9137853    -0.1261295     2.4259164
H           1.6624793    -1.8623089     2.2070434
C           0.4215295     0.6757900     0.1458443
H          -0.5523275     0.7583897     0.6420364
H           0.2694039     0.7762929    -0.9339327
H           1.0351570     1.5182281     0.4757634
C           0.1552990    -1.8036337    -0.0642032
H          -0.8282299    -1.7500517     0.4126468
H           0.5800334    -2.7924724     0.1463170
H           0.0135776    -1.7096666    -1.1472714
N           2.3487173    -0.8495624    -0.2419895
H           2.4304559    -1.6437379    -0.8628497
C           6.0286345     1.0350373    -0.1466260
H           7.0205586     1.4732043    -0.1793576
C           5.0151453     1.5601250     0.6580840
H           5.2002519     2.4332534     1.2792190
C           3.7582625     0.9695856     0.6712867
H           2.9739399     1.3785870     1.2944050
C           3.5365929    -0.1651694    -0.1430871
N           4.5162062    -0.6774265    -0.9215579
C           5.7116414    -0.0855667    -0.9121664
H           6.4621185    -0.5401774    -1.5587177
25
395_C9H14N2_1-0-13-21 (-45,) energy =    -460.8984371
C           1.0490755    -0.6813064     0.4173895
C           1.3713498    -0.8900500     1.9117758
H           0.4478893    -0.8980072     2.5021943
H           2.0151338    -0.1004912     2.3086394
H           1.8827753    -1.8471298     2.0633618
C           0.2741596     0.6361978     0.2028344
H          -0.6683694     0.6186334     0.7622484
H           0.0462350     0.7713789    -0.8593601
H           0.8399246     1.5104474     0.5369732
C           0.1725370    -1.8468155    -0.0749088
H          -0.7746587    -1.8715976     0.4727985
H           0.6758425    -2.8093072     0.0783561
H          -0.0530176    -1.7394226    -1.1421843
N           2.2621463    -0.7124367    -0.4248323
H           2.3985101    -1.5742498    -0.9401132
C           6.0197273     0.9837213    -0.0373654
H           7.0316408     1.3724567     0.0078782
C           4.9599173     1.6046714     0.6273912
H           5.1267689     2.5075531     1.2098427
C           3.6789021     1.0751765     0.5406446
H           2.8526670     1.5676848     1.0367172
C           3.4832499    -0.0999497    -0.2190653
N           4.5060907    -0.7035489    -0.8620347
C           5.7233069    -0.1638379    -0.7700794
H           6.5092218    -0.6887527    -1.3127200
25
395_C9H14N2_1-0-13-21 (-30,) energy =    -460.8972896
C           1.0318459    -0.6627264     0.3809811
C           1.4560859    -0.8350418     1.8525912
H           0.5684895    -0.9623587     2.4826508
H           2.0107976     0.0273806     2.2297942
H           2.0897138    -1.7210467     1.9733171
C           0.1411511     0.5887619     0.2301498
H          -0.7525651     0.5078360     0.8602410
H          -0.1751657     0.7066524    -0.8112664
H           0.6733440     1.4999538     0.5221172
C           0.2348155    -1.8990647    -0.0678131
H          -0.6831068    -1.9985562     0.5201143
H           0.8226801    -2.8155238     0.0639555
H          -0.0469085    -1.8161246    -1.1241712
N           2.1888186    -0.5626265    -0.5473103
H           2.3149503    -1.4016194    -1.1043919
C           6.0246855     0.8819258     0.0647328
H           7.0543532     1.2068865     0.1721721
C           4.9679318     1.5705390     0.6664455
H           5.1559948     2.4654856     1.2545214
C           3.6652201     1.1215103     0.4968213
H           2.8342220     1.6725557     0.9205231
C           3.4460140    -0.0457635    -0.2670781
N           4.4619232    -0.7075305    -0.8565674
C           5.7033964    -0.2405006    -0.6947802
H           6.4858092    -0.8071014    -1.1988720
25
395_C9H14N2_1-0-13-21 (-15,) energy =    -460.8951914
C           1.0168410    -0.6177303     0.3621169
C           1.4679080    -0.7112614     1.8309387
H           0.6045162    -0.9588353     2.4584763
H           1.8873856     0.2255235     2.2036837
H           2.2211923    -1.4957447     1.9643241
C           0.0042059     0.5365619     0.2068628
H          -0.8648587     0.3914796     0.8600861
H          -0.3456903     0.6021613    -0.8286517
H           0.4652375     1.4966993     0.4637599
C           0.3509440    -1.9420022    -0.0491801
H          -0.5443039    -2.1272753     0.5534144
H           1.0368539    -2.7859917     0.0888250
H           0.0446325    -1.9124789    -1.1021013
N           2.1430553    -0.3954544    -0.5914860
H           2.2184223    -1.1545562    -1.2615092
C           6.0631817     0.7548082     0.1089652
H           7.1105625     1.0072335     0.2384247
C           5.0483279     1.4764543     0.7445594
H           5.2888454     2.3265793     1.3782233
C           3.7219143     1.1222518     0.5414979
H           2.9194962     1.7079780     0.9751336
C           3.4356659     0.0114141    -0.2817195
N           4.4096408    -0.6751354    -0.9101427
C           5.6776797    -0.2957003    -0.7197342
H           6.4261000    -0.8759008    -1.2586363
25
395_C9H14N2_1-0-13-21 (0,) energy =    -460.8934373
C           1.0434550    -0.5695199     0.3549115
C           1.4368387    -0.5337285     1.8405630
H           0.6040533    -0.9258187     2.4343301
H           1.6399498     0.4781636     2.1991458
H           2.3172438    -1.1529695     2.0407055
C          -0.0983055     0.4352723     0.0991064
H          -0.9672741     0.2188865     0.7325956
H          -0.4178332     0.3970319    -0.9480888
H           0.2365279     1.4568506     0.3085501
C           0.5682777    -1.9937139     0.0046867
H          -0.3168768    -2.2639799     0.5909002
H           1.3547581    -2.7291594     0.2079668
H           0.2965301    -2.0655281    -1.0560971
N           2.1662723    -0.2466952    -0.5714559
H           2.1765441    -0.8732897    -1.3698604
C           6.1631411     0.6581458     0.0622799
H           7.2259548     0.8515871     0.1645843
C           5.2147518     1.3188433     0.8482374
H           5.5243717     2.0627584     1.5782640
C           3.8646064     1.0472817     0.6752067
H           3.1173868     1.5990394     1.2316229
C           3.4848538     0.0732425    -0.2738619
N           4.3963526    -0.5514961    -1.0472512
C           5.6875613    -0.2486681    -0.8814101
H           6.3796252    -0.7728247    -1.5399465
25
395_C9H14N2_1-0-13-21 (15,) energy =    -460.8951913
C           1.0693068    -0.8880719     0.0577878
C           1.2071970    -0.1148863     1.3817300
H           0.2698805    -0.1919913     1.9438977
H           1.4086684     0.9468556     1.2007454
H           2.0047120    -0.5056281     2.0171483
C          -0.1344918    -0.3392486    -0.7270298
H          -1.0623937    -0.4900867    -0.1656412
H          -0.2388392    -0.8550111    -1.6895497
H          -0.0216600     0.7341284    -0.9192897
C           0.8480693    -2.3859199     0.3568760
H          -0.0432513    -2.5383713     0.9776288
H           1.7079983    -2.8083870     0.8883393
H           0.7239008    -2.9480185    -0.5746000
N           2.2563923    -0.7506263    -0.8360789
H           2.0067456    -0.3245830    -1.7232137
C           6.0630710     0.6827844    -0.0387769
H           7.0586954     1.0908090     0.1016896
C           5.5086248    -0.2316111     0.8618687
H           6.0763750    -0.5696122     1.7252935
C           4.2346379    -0.7334988     0.6357290
H           3.8131598    -1.4897833     1.2879391
C           3.5158608    -0.2751088    -0.4897970
N           4.0535559     0.5919987    -1.3695305
C           5.2934910     1.0387079    -1.1433015
H           5.6861669     1.7287661    -1.8895002
25
395_C9H14N2_1-0-13-21 (30,) energy =    -460.8972895
C           1.0556837    -0.8391243     0.0597700
C           1.1293312    -0.0171345     1.3613422
H           0.2352442    -0.2007938     1.9678845
H           1.1777454     1.0554277     1.1415189
H           2.0011211    -0.2744751     1.9675934
C          -0.2069535    -0.4414488    -0.7231463
H          -1.1067495    -0.6754626    -0.1454367
H          -0.2623569    -0.9873694    -1.6723659
H          -0.2133871     0.6336491    -0.9398271
C           0.9873038    -2.3456491     0.3879014
H           0.1117921    -2.5686169     1.0092590
H           1.8762155    -2.6806281     0.9323136
H           0.9200282    -2.9325777    -0.5337799
N           2.2009190    -0.5820126    -0.8529883
H           1.9369264    -0.0304387    -1.6630844
C           6.1034167     0.5488177    -0.0356917
H           7.1252566     0.8837932     0.1092276
C           5.5011985    -0.3735525     0.8243308
H           6.0544927    -0.7896443     1.6627030
C           4.1928626    -0.7781074     0.5964864
H           3.7309552    -1.5260622     1.2296776
C           3.4924272    -0.2205256    -0.4956880
N           4.0728356     0.6626630    -1.3325718
C           5.3403834     1.0176509    -1.1023456
H           5.7638598     1.7268627    -1.8129615
25
395_C9H14N2_1-0-13-21 (45,) energy =    -460.8984370
C           1.0559429    -0.8039543     0.0868300
C           1.0219655    -0.0019022     1.4044807
H           0.1658363    -0.3105291     2.0154052
H           0.9265867     1.0699269     1.1980850
H           1.9274398    -0.1484713     1.9994812
C          -0.2306617    -0.5184050    -0.7083861
H          -1.1102541    -0.8397068    -0.1419437
H          -0.2245284    -1.0562708    -1.6634534
H          -0.3356323     0.5538219    -0.9145259
C           1.1281489    -2.3195384     0.3696051
H           0.2546289    -2.6404749     0.9489048
H           2.0206130    -2.5943127     0.9388788
H           1.1464968    -2.8786287    -0.5714348
N           2.1675799    -0.3866946    -0.7917918
H           1.8946613     0.2006919    -1.5710942
C           6.1661988     0.4349601    -0.0978351
H           7.2148673     0.6910117     0.0110523
C           5.5172029    -0.4161031     0.7995121
H           6.0574222    -0.8512895     1.6368081
C           4.1738123    -0.7202530     0.6216788
H           3.6751101    -1.3972278     1.3030934
C           3.4889528    -0.1427406    -0.4709522
N           4.1132270     0.6815297    -1.3397427
C           5.4078139     0.9448650    -1.1497169
H           5.8616211     1.6108814    -1.8832991
25
395_C9H14N2_1-0-13-21 (60,) energy =    -460.8984516
C           1.0643749    -0.7709940     0.1306456
C           0.9123752    -0.0584703     1.4920690
H           0.0771921    -0.4887159     2.0567742
H           0.7140302     1.0081018     1.3416996
H           1.8118148    -0.1467653     2.1075339
C          -0.2247695    -0.5570329    -0.6837073
H          -1.0845888    -0.9811445    -0.1560490
H          -0.1531717    -1.0438378    -1.6634228
H          -0.4166680     0.5113307    -0.8395651
C           1.2782849    -2.2883474     0.3192325
H           0.4393639    -2.7239773     0.8740934
H           2.1946402    -2.5140388     0.8709976
H           1.3441474    -2.7848302    -0.6545898
N           2.1432366    -0.1758229    -0.6708419
H           1.8741342     0.2967710    -1.5235441
C           6.2144516     0.3640163    -0.1845264
H           7.2826505     0.5460188    -0.1315968
C           5.5352892    -0.3433560     0.8098567
H           6.0700453    -0.7336344     1.6724949
C           4.1668140    -0.5550970     0.7044556
H           3.6425981    -1.1044871     1.4752249
C           3.4886367    -0.0398914    -0.4245449
N           4.1426961     0.6473206    -1.3878816
C           5.4573208     0.8319148    -1.2569617
H           5.9321559     1.3914364    -2.0628048
25
395_C9H14N2_1-0-13-21 (75,) energy =    -460.8985029
C           1.0540285    -0.7168829     0.1651302
C           0.8115281    -0.1363376     1.5743619
H          -0.0288441    -0.6496587     2.0557874
H           0.5749585     0.9304774     1.5073330
H           1.6818360    -0.2453448     2.2271874
C          -0.2302934    -0.5283988    -0.6630008
H          -1.0706917    -1.0443929    -0.1884909
H          -0.1100241    -0.9386777    -1.6731305
H          -0.4857182     0.5340873    -0.7482634
C           1.3868649    -2.2222722     0.2363588
H           0.5807556    -2.7682477     0.7399717
H           2.3135666    -2.4127164     0.7848075
H           1.5035176    -2.6355399    -0.7715429
N           2.0975071     0.0460053    -0.5443665
H           1.8662986     0.3231312    -1.4906037
C           6.2231340     0.2156880    -0.2533414
H           7.3047412     0.3006279    -0.2515249
C           5.5206831    -0.2990071     0.8384857
H           6.0497989    -0.6283129     1.7295084
C           4.1353624    -0.3886667     0.7957815
H           3.5898558    -0.7734814     1.6473985
C           3.4659649     0.0430652    -0.3716913
N           4.1427239     0.5378801    -1.4311437
C           5.4724416     0.6198013    -1.3555814
H           5.9654979     1.0303259    -2.2365394
25
395_C9H14N2_1-0-13-21 (90,) energy =    -460.8977428
C           1.0466798    -0.6697976     0.1755036
C           0.6667164    -0.1712030     1.5849295
H          -0.1379103    -0.7842816     2.0076538
H           0.3269226     0.8681808     1.5377760
H           1.5145042    -0.2136194     2.2763831
C          -0.1936709    -0.5461624    -0.7300102
H          -1.0269887    -1.1261608    -0.3211156
H           0.0166984    -0.9213480    -1.7389414
H          -0.5136831     0.4994468    -0.8082625
C           1.4926964    -2.1442699     0.2053823
H           0.6840236    -2.7720133     0.5967146
H           2.3713526    -2.3020519     0.8362324
H           1.7376099    -2.4924630    -0.8042180
N           2.0649557     0.2292283    -0.4221822
H           1.8346568     0.5213040    -1.3660848
C           6.2045490     0.0896665    -0.3163306
H           7.2887320     0.0905670    -0.3594477
C           5.5123485    -0.3267690     0.8237484
H           6.0525453    -0.6552193     1.7083183
C           4.1240372    -0.3065135     0.8361425
H           3.5793713    -0.5908152     1.7281849
C           3.4437431     0.1196495    -0.3256882
N           4.1082530     0.5277136    -1.4260136
C           5.4438214     0.5160914    -1.4025945
H           5.9306562     0.8625171    -2.3138440
25
395_C9H14N2_1-0-13-21 (105,) energy =    -460.8956937
C           1.0500495    -0.6401947     0.2310932
C           0.5146990    -0.1733581     1.5996064
H          -0.2858236    -0.8330134     1.9555772
H           0.1211595     0.8452129     1.5241621
H           1.3086832    -0.1685703     2.3551104
C          -0.1034412    -0.5800665    -0.7901308
H          -0.9409905    -1.2051606    -0.4637395
H           0.2238241    -0.9353018    -1.7744145
H          -0.4741258     0.4466713    -0.8975816
C           1.5643384    -2.0887000     0.2986474
H           0.7379710    -2.7554537     0.5690507
H           2.3536412    -2.2245734     1.0417238
H           1.9571297    -2.4082572    -0.6727587
N           2.0710063     0.3333501    -0.2514744
H           1.8082810     0.7456825    -1.1410789
C           6.1972152    -0.0070741    -0.4288279
H           7.2753626    -0.0577839    -0.5406050
C           5.5581570    -0.4234665     0.7428817
H           6.1363523    -0.7986793     1.5837155
C           4.1769769    -0.3317886     0.8429459
H           3.6693193    -0.5947175     1.7639928
C           3.4486751     0.1544745    -0.2647419
N           4.0615022     0.5713984    -1.3895944
C           5.3952245     0.4967849    -1.4496085
H           5.8429423     0.8557193    -2.3758329
25
395_C9H14N2_1-0-13-21 (120,) energy =    -460.8936536
C           1.0512218    -0.6164077     0.2784844
C           0.3460664    -0.1165821     1.5548704
H          -0.4787637    -0.7814526     1.8389751
H          -0.0583694     0.8892736     1.3995223
H           1.0514200    -0.0665957     2.3917761
C           0.0371314    -0.6325987    -0.8845639
H          -0.8175329    -1.2750950    -0.6465917
H           0.5027792    -1.0046483    -1.8041355
H          -0.3508072     0.3754459    -1.0783617
C           1.5774086    -2.0463534     0.4790407
H           0.7247355    -2.7222916     0.6055567
H           2.2047195    -2.1475074     1.3679256
H           2.1544848    -2.3855223    -0.3873732
N           2.1090379     0.3667126    -0.0951125
H           1.8184606     0.9416913    -0.8793936
C           6.2079809    -0.0321710    -0.5741248
H           7.2752717    -0.0902292    -0.7612714
C           5.6320599    -0.5702015     0.5804822
H           6.2514045    -1.0505605     1.3340313
C           4.2631561    -0.4623840     0.7820192
H           3.8120370    -0.8143856     1.7017926
C           3.4778501     0.1601012    -0.2127442
N           4.0326892     0.6979946    -1.3174662
C           5.3575649     0.6077489    -1.4720158
H           5.7560573     1.0695404    -2.3749210
25
395_C9H14N2_1-0-13-21 (135,) energy =    -460.8953450
C           1.4066268    -0.5582145     0.9372742
C           0.9171631    -1.8789398     1.5605145
H          -0.1593503    -2.0045107     1.4043112
H           1.1003232    -1.8938344     2.6423985
H           1.4311627    -2.7356645     1.1102624
C           0.6280285     0.6312944     1.5287900
H          -0.4433949     0.5499273     1.3093465
H           0.9884624     1.5789223     1.1136227
H           0.7590071     0.6725057     2.6151635
C           1.1752091    -0.6466726    -0.5842772
H           0.1152346    -0.8449372    -0.7784431
H           1.7606176    -1.4623939    -1.0220765
H           1.4377711     0.2751451    -1.1086023
N           2.8473033    -0.4349211     1.3033723
H           3.1626827    -1.2241097     1.8584965
C           6.1236183     0.5872188    -1.0199685
H           7.0214957     0.8028244    -1.5899151
C           4.9713987     1.3706557    -1.1365948
H           4.9546262     2.2332108    -1.7982641
C           3.8499902     1.0608487    -0.3801781
H           2.9693635     1.6921571    -0.4119987
C           3.8949268    -0.0672377     0.4680832
N           5.0085146    -0.8143075     0.5963167
C           6.0840005    -0.4774140    -0.1234774
H           6.9615317    -1.1060756     0.0243874
25
395_C9H14N2_1-0-13-21 (150,) energy =    -460.8974345
C           1.3847952    -0.5888181     0.9012558
C           0.7905110    -1.8124871     1.6220375
H          -0.2950508    -1.8486780     1.4863249
H           0.9951426    -1.7689031     2.6985938
H           1.2133339    -2.7431980     1.2256410
C           0.7249986     0.6949315     1.4406894
H          -0.3566210     0.6793392     1.2619256
H           1.1295913     1.5906351     0.9583548
H           0.8997581     0.7879881     2.5174240
C           1.1180747    -0.7454935    -0.6102718
H           0.0393767    -0.8075914    -0.7936850
H           1.5827855    -1.6618971    -0.9905848
H           1.5061525     0.0934944    -1.1933826
N           2.8337016    -0.5917455     1.2296384
H           3.1376765    -1.4583080     1.6612083
C           6.1036793     0.7216537    -0.9500422
H           7.0027545     1.0093109    -1.4850632
C           4.9277170     1.4726382    -1.0282335
H           4.8903473     2.3795225    -1.6268323
C           3.8024473     1.0697811    -0.3219445
H           2.8988584     1.6670985    -0.3410930
C           3.8730227    -0.1139256     0.4450798
N           5.0080336    -0.8366913     0.5294213
C           6.0818791    -0.4140985    -0.1440787
H           6.9743973    -1.0296411    -0.0351675
25
395_C9H14N2_1-0-13-21 (165,) energy =    -460.8984735
C           1.3832512    -0.6154097     0.8525719
C           0.7394435    -1.7553655     1.6628968
H          -0.3512773    -1.7124627     1.5840191
H           1.0082159    -1.6791737     2.7228639
H           1.0662107    -2.7342564     1.2913932
C           0.8651391     0.7296127     1.4030495
H          -0.2264605     0.7802678     1.3169284
H           1.2785860     1.5871484     0.8648935
H           1.1362252     0.8349281     2.4584965
C           1.0042191    -0.7869291    -0.6336706
H          -0.0828219    -0.7228214    -0.7589577
H           1.3345513    -1.7644937    -1.0018549
H           1.4595145    -0.0201578    -1.2664142
N           2.8370910    -0.7446939     1.0731316
H           3.1332302    -1.6293478     1.4681556
C           6.1533596     0.8208915    -0.8488927
H           7.0686682     1.1718160    -1.3138702
C           4.9432853     1.5035286    -0.9913943
H           4.8915477     2.4181280    -1.5771531
C           3.7952216     1.0206638    -0.3767324
H           2.8611029     1.5590668    -0.4702080
C           3.8830022    -0.1705320     0.3783578
N           5.0510670    -0.8345052     0.5162817
C           6.1390129    -0.3390909    -0.0770091
H           7.0538198    -0.9123470     0.0718437
25
395_C9H14N2_1-0-13-21 (180,) energy =    -460.8984498
C           1.3834432    -0.6434832     0.7954707
C           0.7301111    -1.7406488     1.6557459
H          -0.3574686    -1.6197569     1.6672926
H           1.0878582    -1.6906118     2.6910000
H           0.9565667    -2.7367723     1.2574116
C           1.0320423     0.7320486     1.4024633
H          -0.0529392     0.8875239     1.3908081
H           1.4926332     1.5576170     0.8532502
H           1.3778912     0.7875290     2.4401011
C           0.8483195    -0.7656515    -0.6477739
H          -0.2375308    -0.6168885    -0.6648384
H           1.0671334    -1.7605751    -1.0497230
H           1.2960034    -0.0286536    -1.3198529
N           2.8291873    -0.9010086     0.8543610
H           3.1333872    -1.6928448     1.4049459
C           6.2045190     0.8741907    -0.7448244
H           7.1359637     1.2803216    -1.1248827
C           4.9684667     1.4469495    -1.0523231
H           4.9110051     2.3262916    -1.6894128
C           3.7987311     0.8962198    -0.5452896
H           2.8421418     1.3414870    -0.7848487
C           3.8935989    -0.2473134     0.2814160
N           5.0886251    -0.8044288     0.5810323
C           6.1929658    -0.2508293     0.0776940
H           7.1269310    -0.7411569     0.3519370
