27
189_C12H11N3O_2-0-22-20 (-165,) energy =    -703.4098720
N           1.3223866    -0.8593307     0.0205636
H           1.3326746     0.1395141    -0.1353958
C           2.5416497    -1.5180580    -0.0299672
N           3.6068022    -0.6310741    -0.1222846
H           3.4409717     0.3676389    -0.0926984
O           2.6706637    -2.7338899     0.0116593
C           7.6982056    -1.1838717    -0.3029044
H           8.7806674    -1.2435897    -0.3514418
C           6.8999796    -2.3297004    -0.2739094
H           7.3532471    -3.3171302    -0.2997336
C           5.5155397    -2.2143076    -0.2115059
H           4.8610697    -3.0735577    -0.1845848
C           4.9781861    -0.9171608    -0.1795529
N           5.7274287     0.1946185    -0.2067834
C           7.0554524     0.0508693    -0.2669395
H           7.6280522     0.9766525    -0.2868591
C          -2.6060848    -2.3978933     0.0819150
H          -3.6239471    -2.7764331     0.0989573
C          -2.3556721    -1.0555421    -0.2068395
H          -3.1770916    -0.3762560    -0.4184091
C          -1.0494493    -0.5750429    -0.2318578
H          -0.8639922     0.4725334    -0.4635013
C           0.0308765    -1.4296727     0.0398254
C          -0.2156572    -2.7795074     0.3330715
H           0.6127867    -3.4433319     0.5343964
C          -1.5302705    -3.2458896     0.3472954
H          -1.7094931    -4.2937071     0.5736869
27
189_C12H11N3O_2-0-22-20 (-150,) energy =    -703.4093416
N           1.3231861    -0.8269703     0.1851877
H           1.3322749     0.1734996     0.0366899
C           2.5335409    -1.4931020     0.0325815
N           3.6072745    -0.6140554    -0.0103920
H           3.4553602     0.3783857     0.1232357
O           2.6425537    -2.7089713    -0.0336393
C           7.6818683    -1.1963978    -0.3782594
H           8.7611544    -1.2646516    -0.4684358
C           6.8676394    -2.3301239    -0.4300715
H           7.3046359    -3.3162131    -0.5634929
C           5.4878924    -2.2041190    -0.3106417
H           4.8212462    -3.0538778    -0.3420490
C           4.9719232    -0.9092126    -0.1394679
N           5.7366157     0.1909516    -0.0876237
C           7.0597349     0.0373162    -0.2051977
H           7.6455570     0.9537673    -0.1573124
C          -2.5773544    -2.4258521     0.0021792
H          -3.5874782    -2.8226696    -0.0414828
C          -2.3181998    -1.1117030    -0.3891545
H          -3.1242196    -0.4745091    -0.7429940
C          -1.0204536    -0.6081311    -0.3399364
H          -0.8236410     0.4139204    -0.6588711
C           0.0359062    -1.4089968     0.1183837
C          -0.2205075    -2.7289571     0.5166929
H           0.5934538    -3.3531188     0.8581552
C          -1.5225043    -3.2236225     0.4486677
H          -1.7105661    -4.2488376     0.7564400
27
189_C12H11N3O_2-0-22-20 (-135,) energy =    -703.4083638
N           1.3279344    -0.8012456     0.3408765
H           1.3407655     0.2022815     0.2097983
C           2.5228487    -1.4705172     0.0812699
N           3.6099948    -0.6082237     0.0756725
H           3.4808786     0.3667195     0.3181945
O           2.6021735    -2.6772701    -0.0903883
C           7.6597130    -1.2285253    -0.4630500
H           8.7343748    -1.3085518    -0.5909331
C           6.8202336    -2.3366542    -0.5987377
H           7.2317893    -3.3136280    -0.8381094
C           5.4473798    -2.1963861    -0.4275309
H           4.7616711    -3.0264693    -0.5192514
C           4.9645672    -0.9143082    -0.1185732
N           5.7537859     0.1611410     0.0157507
C           7.0696217    -0.0055285    -0.1546323
H           7.6763575     0.8907362    -0.0364336
C          -2.5354725    -2.4509414    -0.0586865
H          -3.5346314    -2.8656651    -0.1566075
C          -2.2498467    -1.1785751    -0.5550804
H          -3.0235039    -0.5948697    -1.0465827
C          -0.9641533    -0.6527363    -0.4385309
H          -0.7400875     0.3319879    -0.8441025
C           0.0435827    -1.3859070     0.2011365
C          -0.2399122    -2.6626223     0.7033515
H           0.5430868    -3.2343335     1.1842184
C          -1.5240163    -3.1864845     0.5626403
H          -1.7351049    -4.1789102     0.9518388
27
189_C12H11N3O_2-0-22-20 (-120,) energy =    -703.4068813
N           1.3262582    -0.7942842     0.5027384
H           1.3393886     0.2144582     0.4114331
C           2.5064775    -1.4502053     0.1423369
N           3.6043632    -0.6034905     0.1823743
H           3.4940269     0.3454846     0.5189594
O           2.5602690    -2.6371400    -0.1371376
C           7.6259843    -1.2198524    -0.5381430
H           8.6948141    -1.3013438    -0.7073311
C           6.7668487    -2.3020174    -0.7432376
H           7.1562131    -3.2590894    -1.0802850
C           5.4022935    -2.1611455    -0.5159317
H           4.7017243    -2.9717316    -0.6571947
C           4.9480864    -0.9055071    -0.0806461
N           5.7564665     0.1446499     0.1220915
C           7.0638365    -0.0219103    -0.1045796
H           7.6870780     0.8531494     0.0722876
C          -2.4903289    -2.4791784    -0.1389597
H          -3.4755026    -2.9081476    -0.2988637
C          -2.1513163    -1.2593760    -0.7258845
H          -2.8687538    -0.7347044    -1.3509712
C          -0.8817250    -0.7159793    -0.5303185
H          -0.6080981     0.2229181    -1.0070985
C           0.0450445    -1.3748287     0.2849932
C          -0.2904600    -2.5991174     0.8733583
H           0.4380942    -3.1126071     1.4895743
C          -1.5529476    -3.1468325     0.6524949
H          -1.8073542    -4.0989774     1.1101097
27
189_C12H11N3O_2-0-22-20 (-105,) energy =    -703.4050662
N           1.3387814    -0.8254519     0.6023521
H           1.3535828     0.1876798     0.5786559
C           2.5036812    -1.4528773     0.1493148
N           3.6142800    -0.6276459     0.2535787
H           3.5247736     0.2756031     0.7031514
O           2.5328138    -2.6042063    -0.2533198
C           7.6106553    -1.2139106    -0.6182465
H           8.6744500    -1.2900446    -0.8188885
C           6.7300654    -2.2543793    -0.9239458
H           7.0974442    -3.1728039    -1.3742294
C           5.3729657    -2.1213841    -0.6520265
H           4.6566042    -2.9016891    -0.8661355
C           4.9475266    -0.9163006    -0.0692277
N           5.7768658     0.0931743     0.2319843
C           7.0765167    -0.0649469    -0.0408074
H           7.7172754     0.7760355     0.2193512
C          -2.4521018    -2.5163617    -0.1852510
H          -3.4284704    -2.9503824    -0.3819732
C          -2.0341284    -1.3848686    -0.8874488
H          -2.6798772    -0.9371542    -1.6379693
C          -0.7753654    -0.8350239    -0.6432292
H          -0.4366124     0.0314228    -1.2064614
C           0.0557775    -1.3952726     0.3317365
C          -0.3589210    -2.5310267     1.0321959
H           0.3015519    -2.9648711     1.7753410
C          -1.6080297    -3.0909021     0.7676281
H          -1.9254986    -3.9749144     1.3137975
27
189_C12H11N3O_2-0-22-20 (-90,) energy =    -703.4036500
N           1.3389741    -0.7518311     0.3736011
H           1.4671081    -0.2837331     1.2633653
C           2.4818334    -1.3312547    -0.1803705
N           3.6465382    -0.7182161     0.2623689
H           3.5828802     0.1213560     0.8253631
O           2.4449132    -2.2486052    -0.9841980
C           7.6355811    -1.3801352    -0.5883047
H           8.7012796    -1.4893817    -0.7617828
C           6.7064914    -2.2567187    -1.1540358
H           7.0365162    -3.0756297    -1.7878776
C           5.3484766    -2.0852553    -0.9102563
H           4.5940268    -2.7334608    -1.3328740
C           4.9717152    -1.0121906    -0.0856218
N           5.8479956    -0.1598622     0.4653322
C           7.1471859    -0.3501955     0.2113503
H           7.8264166     0.3630662     0.6755667
C          -2.4803588    -2.5092913    -0.0727064
H          -3.4685105    -2.9473918    -0.1832398
C          -1.9910544    -1.6307710    -1.0414475
H          -2.5984376    -1.3808009    -1.9069790
C          -0.7271071    -1.0590783    -0.8956803
H          -0.3391505    -0.3635280    -1.6330641
C           0.0619139    -1.3848830     0.2095865
C          -0.4260774    -2.2649332     1.1797131
H           0.1941971    -2.5157452     2.0364824
C          -1.6974930    -2.8222290     1.0400323
H          -2.0722444    -3.5056462     1.7971006
27
189_C12H11N3O_2-0-22-20 (-75,) energy =    -703.4052823
N           1.3490061    -0.8089897     0.4349371
H           1.4943128    -0.4445297     1.3693674
C           2.4866763    -1.3276449    -0.1912601
N           3.6572000    -0.7874958     0.3214134
H           3.6055749    -0.0409852     1.0041094
O           2.4388829    -2.1328639    -1.1068705
C           7.6366118    -1.3453773    -0.6417471
H           8.7005411    -1.4345901    -0.8361850
C           6.6986209    -2.1265146    -1.3210531
H           7.0195753    -2.8481700    -2.0676577
C           5.3431136    -1.9843208    -1.0458278
H           4.5823971    -2.5627612    -1.5504329
C           4.9786508    -1.0382871    -0.0737129
N           5.8634042    -0.2790707     0.5883293
C           7.1597778    -0.4383814     0.3010447
H           7.8463623     0.1966740     0.8585326
C          -2.4912560    -2.4919311    -0.0758305
H          -3.4867943    -2.9079172    -0.2029387
C          -1.8832659    -1.7953486    -1.1229593
H          -2.4060799    -1.6644151    -2.0664460
C          -0.6125363    -1.2463275    -0.9601035
H          -0.1383459    -0.6894308    -1.7611374
C           0.0723219    -1.4232656     0.2457710
C          -0.5339658    -2.1200781     1.2952316
H           0.0007376    -2.2543890     2.2327772
C          -1.8160359    -2.6471965     1.1354434
H          -2.2813598    -3.1859285     1.9563866
27
189_C12H11N3O_2-0-22-20 (-60,) energy =    -703.4071399
N           1.3705877    -0.9094133     0.5097089
H           1.5295574    -0.6139876     1.4654820
C           2.5004800    -1.3527458    -0.1828002
N           3.6750844    -0.8698055     0.3743961
H           3.6321758    -0.2122345     1.1436958
O           2.4466618    -2.0530080    -1.1812993
C           7.6449662    -1.2985598    -0.6894075
H           8.7069437    -1.3603097    -0.9040809
C           6.7013950    -1.9983234    -1.4452042
H           7.0161268    -2.6266435    -2.2742486
C           5.3485373    -1.8945555    -1.1407524
H           4.5839750    -2.4139081    -1.7006858
C           4.9928886    -1.0697874    -0.0611342
N           5.8829288    -0.3901705     0.6759213
C           7.1764048    -0.5099908     0.3582530
H           7.8675161     0.0577708     0.9790638
C          -2.5193922    -2.4394436    -0.0722304
H          -3.5279392    -2.8162392    -0.2167604
C          -1.8007453    -1.9228528    -1.1531295
H          -2.2509554    -1.8927860    -2.1416800
C          -0.5119043    -1.4237224    -0.9759764
H           0.0450203    -1.0128416    -1.8096448
C           0.0821958    -1.4722213     0.2907228
C          -0.6356963    -1.9880075     1.3751947
H          -0.1741127    -2.0221083     2.3599102
C          -1.9344389    -2.4637729     1.1940690
H          -2.4829278    -2.8606568     2.0440325
27
189_C12H11N3O_2-0-22-20 (-45,) energy =    -703.4085763
N           1.3921173    -1.0538528     0.5659501
H           1.5581893    -0.7864767     1.5278071
C           2.5143179    -1.4099883    -0.1791269
N           3.6905795    -0.9675779     0.4091261
H           3.6528200    -0.3969268     1.2451418
O           2.4615125    -2.0132816    -1.2401937
C           7.6528504    -1.2339377    -0.7326022
H           8.7128955    -1.2591343    -0.9634889
C           6.7102086    -1.8683695    -1.5450020
H           7.0233698    -2.4066796    -2.4356826
C           5.3596498    -1.8149592    -1.2181391
H           4.5963205    -2.2878357    -1.8192608
C           5.0052922    -1.1068245    -0.0583052
N           5.8948732    -0.4917319     0.7340458
C           7.1861904    -0.5607472     0.3935217
H           7.8767481    -0.0482389     1.0612490
C          -2.5666080    -2.3673824    -0.0702480
H          -3.5920580    -2.6908402    -0.2242264
C          -1.7619610    -2.0277190    -1.1599447
H          -2.1628753    -2.0827059    -2.1685253
C          -0.4478375    -1.6008843    -0.9763243
H           0.1728782    -1.3355335    -1.8220189
C           0.0830896    -1.5384482     0.3192527
C          -0.7218101    -1.8773954     1.4145932
H          -0.3118438    -1.8268357     2.4215571
C          -2.0406737    -2.2842130     1.2193216
H          -2.6526011    -2.5429889     2.0791966
27
189_C12H11N3O_2-0-22-20 (-30,) energy =    -703.4094453
N           1.4138389    -1.2015040     0.6016667
H           1.5837825    -0.9589845     1.5687808
C           2.5300091    -1.4608633    -0.1842983
N           3.7053079    -1.0572008     0.4352435
H           3.6682413    -0.5691257     1.3220006
O           2.4828124    -1.9660405    -1.2967062
C           7.6631375    -1.1573243    -0.7482747
H           8.7218486    -1.1448437    -0.9861783
C           6.7248306    -1.7314650    -1.6090476
H           7.0401370    -2.1828977    -2.5460330
C           5.3758199    -1.7291821    -1.2715192
H           4.6162770    -2.1586048    -1.9088279
C           5.0183027    -1.1334484    -0.0510448
N           5.9039059    -0.5777202     0.7884234
C           7.1937511    -0.5954420     0.4362461
H           7.8808039    -0.1340016     1.1436406
C          -2.6045922    -2.3007523    -0.0666193
H          -3.6444984    -2.5717518    -0.2243148
C          -1.7450434    -2.1293250    -1.1529358
H          -2.1169187    -2.2647141    -2.1651526
C          -0.4087846    -1.7753419    -0.9693093
H           0.2526871    -1.6470721    -1.8146183
C           0.0862877    -1.6062826     0.3321979
C          -0.7756248    -1.7765849     1.4257591
H          -0.3959345    -1.6437969     2.4373811
C          -2.1111058    -2.1176924     1.2257572
H          -2.7631306    -2.2450753     2.0856940
27
189_C12H11N3O_2-0-22-20 (-15,) energy =    -703.4099057
N           1.4231521    -1.7541655    -0.7954045
H           1.5308764    -1.6708756    -1.7971350
C           2.5541359    -1.5558398    -0.0183492
N           3.6981598    -1.4139019    -0.7933538
H           3.6422331    -1.4852102    -1.8020804
O           2.5526546    -1.5206489     1.2046243
C           7.6715347    -0.8092545     0.1672799
H           8.7319790    -0.6519922     0.3356805
C           6.7630799    -0.8819191     1.2257553
H           7.1046545    -0.7811086     2.2525523
C           5.4109178    -1.0846930     0.9720201
H           4.6745668    -1.1485582     1.7600900
C           5.0192415    -1.2090624    -0.3709233
N           5.8758764    -1.1418561    -1.4004511
C           7.1695082    -0.9464208    -1.1243081
H           7.8323224    -0.8982631    -1.9866960
C          -2.6305202    -2.1147792     0.3187348
H          -3.6786075    -2.2118754     0.5865341
C          -1.6379818    -2.2012362     1.2955896
H          -1.9131142    -2.3683142     2.3337160
C          -0.2863426    -2.0822189     0.9716126
H           0.4773743    -2.1469448     1.7331961
C           0.0831040    -1.8615667    -0.3639870
C          -0.9134768    -1.7751204    -1.3492313
H          -0.6321284    -1.6058221    -2.3873547
C          -2.2573225    -1.9024886    -1.0092994
H          -3.0123506    -1.8321578    -1.7876851
27
189_C12H11N3O_2-0-22-20 (0,) energy =    -703.4100415
N           1.4047553    -1.6106943    -0.7852478
H           1.5125680    -1.5249207    -1.7865604
C           2.5490237    -1.5058148    -0.0114588
N           3.6847773    -1.3220224    -0.7902710
H           3.6140310    -1.3042335    -1.8004164
O           2.5654228    -1.5659039     1.2107116
C           7.6808704    -0.8718112     0.1579006
H           8.7460839    -0.7483054     0.3242296
C           6.7850579    -1.0142015     1.2200895
H           7.1411898    -1.0040715     2.2468488
C           5.4260906    -1.1705819     0.9701403
H           4.6986187    -1.2852150     1.7606983
C           5.0152351    -1.1773811    -0.3727423
N           5.8596376    -1.0423167    -1.4058092
C           7.1602643    -0.8936531    -1.1335032
H           7.8128854    -0.7872569    -1.9984598
C          -2.6286000    -2.1792078     0.3128647
H          -3.6717884    -2.3251498     0.5774986
C          -1.6499123    -2.1080671     1.3046583
H          -1.9304062    -2.1987618     2.3508235
C          -0.3043127    -1.9208024     0.9873662
H           0.4493764    -1.8653670     1.7594217
C           0.0731529    -1.8022716    -0.3589983
C          -0.9100828    -1.8731518    -1.3595323
H          -0.6232531    -1.7817249    -2.4059541
C          -2.2479596    -2.0599097    -1.0247773
H          -2.9922279    -2.1119530    -1.8149027
27
189_C12H11N3O_2-0-22-20 (15,) energy =    -703.4099049
N           1.3933730    -1.4855004    -0.7828463
H           1.5059629    -1.4381168    -1.7863455
C           2.5455846    -1.4668197    -0.0122603
N           3.6818620    -1.2531382    -0.7822818
H           3.6005993    -1.1110474    -1.7817586
O           2.5646466    -1.6109922     1.2025808
C           7.6889031    -0.9276064     0.1726422
H           8.7564358    -0.8290215     0.3407549
C           6.8016291    -1.1791517     1.2216497
H           7.1670745    -1.2825636     2.2399449
C           5.4394375    -1.2994690     0.9692510
H           4.7183174    -1.4925951     1.7502912
C           5.0160903    -1.1576522    -0.3623157
N           5.8523085    -0.9165210    -1.3825563
C           7.1563294    -0.8060097    -1.1082496
H           7.8017815    -0.6099769    -1.9628509
C          -2.6140995    -2.2261717     0.3096861
H          -3.6512896    -2.4122604     0.5727699
C          -1.6644076    -1.9826965     1.3024749
H          -1.9618656    -1.9771464     2.3478678
C          -0.3281338    -1.7382659     0.9853980
H           0.4028147    -1.5539030     1.7594890
C           0.0720397    -1.7465637    -0.3595478
C          -0.8816705    -1.9915315    -1.3603397
H          -0.5761448    -1.9988247    -2.4053557
C          -2.2125987    -2.2267599    -1.0270705
H          -2.9344159    -2.4138566    -1.8175691
27
189_C12H11N3O_2-0-22-20 (30,) energy =    -703.4094439
N           1.3750342    -1.3439113    -0.7844516
H           1.4880147    -1.3003533    -1.7884905
C           2.5339626    -1.4185757    -0.0224857
N           3.6716457    -1.1649186    -0.7770377
H           3.5863884    -0.9193694    -1.7559521
O           2.5502249    -1.6588632     1.1763749
C           7.6872311    -0.9921317     0.1843223
H           8.7569417    -0.9262634     0.3546902
C           6.7999802    -1.3295308     1.2089457
H           7.1680017    -1.5356614     2.2105565
C           5.4351008    -1.4042265     0.9532826
H           4.7140060    -1.6595926     1.7163254
C           5.0086992    -1.1287087    -0.3562164
N           5.8447090    -0.8038796    -1.3529368
C           7.1513339    -0.7402191    -1.0759722
H           7.7964435    -0.4729664    -1.9112982
C          -2.5878692    -2.2845370     0.3178103
H          -3.6144178    -2.5184155     0.5846928
C          -1.6780286    -1.8745193     1.2936802
H          -1.9974051    -1.7849493     2.3286561
C          -0.3582096    -1.5638643     0.9676122
H           0.3424833    -1.2492040     1.7282406
C           0.0690746    -1.6840208    -0.3630106
C          -0.8435097    -2.0947558    -1.3459302
H          -0.5155911    -2.1870667    -2.3798715
C          -2.1621165    -2.3886436    -1.0070151
H          -2.8540467    -2.7050454    -1.7828886
27
189_C12H11N3O_2-0-22-20 (45,) energy =    -703.4085764
N           1.3577446    -1.2009361    -0.7876930
H           1.4720694    -1.1628831    -1.7925434
C           2.5207951    -1.3720400    -0.0397948
N           3.6596346    -1.0740636    -0.7743808
H           3.5716513    -0.7112197    -1.7159752
O           2.5298330    -1.7143402     1.1329583
C           7.6773589    -1.0578603     0.1911175
H           8.7478487    -1.0258540     0.3662540
C           6.7858039    -1.4911483     1.1752238
H           7.1509748    -1.8089274     2.1482708
C           5.4200096    -1.5186723     0.9152760
H           4.6946057    -1.8427755     1.6476561
C           4.9979146    -1.0976959    -0.3562731
N           5.8377155    -0.6787622    -1.3137410
C           7.1452390    -0.6634913    -1.0337988
H           7.7940069    -0.3163122    -1.8362675
C          -2.5444418    -2.3433524     0.3385316
H          -3.5560081    -2.6253415     0.6161776
C          -1.6916553    -1.7588430     1.2773546
H          -2.0408707    -1.5804510     2.2908732
C          -0.3947651    -1.3822106     0.9323568
H           0.2634150    -0.9269213     1.6606506
C           0.0699126    -1.6192598    -0.3684715
C          -0.7834650    -2.2043757    -1.3128870
H          -0.4248466    -2.3865804    -2.3242205
C          -2.0848234    -2.5588982    -0.9610192
H          -2.7349529    -3.0110711    -1.7051214
27
189_C12H11N3O_2-0-22-20 (60,) energy =    -703.4071399
N           1.3369336    -1.0471383    -0.7646745
H           1.4440997    -0.9798471    -1.7696841
C           2.5060251    -1.3155063    -0.0477695
N           3.6441286    -0.9709646    -0.7614659
H           3.5532688    -0.5089011    -1.6582987
O           2.5121515    -1.7667164     1.0865353
C           7.6675651    -1.1320843     0.1653802
H           8.7395960    -1.1400821     0.3337767
C           6.7731192    -1.6409625     1.1099759
H           7.1373884    -2.0601641     2.0441863
C           5.4054773    -1.6137734     0.8601424
H           4.6772873    -1.9918059     1.5634495
C           4.9847969    -1.0614538    -0.3606115
N           5.8271050    -0.5680221    -1.2795117
C           7.1363992    -0.6078289    -1.0102381
H           7.7875490    -0.1969375    -1.7800342
C          -2.4967737    -2.4122967     0.3540217
H          -3.4913633    -2.7485003     0.6329605
C          -1.7329122    -1.6581418     1.2481292
H          -2.1341619    -1.4020308     2.2249694
C          -0.4618353    -1.2098355     0.8944983
H           0.1297735    -0.6160544     1.5811014
C           0.0693229    -1.5478427    -0.3558790
C          -0.6938147    -2.3020474    -1.2538175
H          -0.2814658    -2.5614733    -2.2267344
C          -1.9748809    -2.7266203    -0.9009942
H          -2.5589968    -3.3105116    -1.6071500
27
189_C12H11N3O_2-0-22-20 (75,) energy =    -703.4052825
N           1.3155898    -0.9290865    -0.7134891
H           1.4089959    -0.7907894    -1.7131440
C           2.4906771    -1.2861140    -0.0444480
N           3.6260074    -0.8753072    -0.7277117
H           3.5292442    -0.3066348    -1.5603367
O           2.5005059    -1.8591174     1.0328328
C           7.6563972    -1.1866672     0.1288372
H           8.7299270    -1.2261077     0.2827578
C           6.7649510    -1.7920706     1.0178114
H           7.1333661    -2.3211458     1.8927750
C           5.3954209    -1.7203744     0.7883911
H           4.6692839    -2.1684532     1.4516139
C           4.9691529    -1.0251241    -0.3551595
N           5.8085749    -0.4371840    -1.2195635
C           7.1198878    -0.5228688    -0.9713437
H           7.7684543    -0.0320536    -1.6951846
C          -2.4685067    -2.4618870     0.3691960
H          -3.4500666    -2.8407656     0.6399439
C          -1.8193367    -1.5409902     1.1949980
H          -2.2966188    -1.1983196     2.1090011
C          -0.5667276    -1.0400437     0.8445685
H          -0.0612070    -0.3121190     1.4700550
C           0.0594099    -1.4877820    -0.3223827
C          -0.5880483    -2.4093566    -1.1506131
H          -0.0986475    -2.7538838    -2.0587548
C          -1.8524450    -2.8896892    -0.8075149
H          -2.3500290    -3.6044163    -1.4573490
27
189_C12H11N3O_2-0-22-20 (90,) energy =    -703.4036501
N           1.3081647    -0.8612856    -0.6663914
H           1.3844733    -0.6065994    -1.6443680
C           2.4855974    -1.2946905    -0.0549676
N           3.6174105    -0.7950791    -0.6857269
H           3.5135404    -0.1091984    -1.4237455
O           2.5026337    -2.0020668     0.9392397
C           7.6535048    -1.2318317     0.0844748
H           8.7280898    -1.2950981     0.2223324
C           6.7671087    -1.9561567     0.8852994
H           7.1407421    -2.6052472     1.6729348
C           5.3961532    -1.8493876     0.6801088
H           4.6735406    -2.3842913     1.2798452
C           4.9625038    -0.9973332    -0.3491748
N           5.7972759    -0.2933170    -1.1272525
C           7.1102879    -0.4162565    -0.9047122
H           7.7546675     0.1720060    -1.5561121
C          -2.4582384    -2.4789436     0.3688939
H          -3.4331890    -2.8824312     0.6282219
C          -1.9342002    -1.3999519     1.0835693
H          -2.5012084    -0.9593844     1.8990120
C          -0.6875358    -0.8736360     0.7452285
H          -0.2732921    -0.0261817     1.2821264
C           0.0501233    -1.4425624    -0.2952369
C          -0.4727948    -2.5233918    -1.0109141
H           0.1075812    -2.9626600    -1.8183092
C          -1.7273869    -3.0371761    -0.6814557
H          -2.1293915    -3.8773584    -1.2410473
27
189_C12H11N3O_2-0-22-20 (105,) energy =    -703.4050661
N           1.3162777    -0.9869921    -0.8532160
H           1.3291823     0.0057337    -1.0570195
C           2.5025877    -1.5061516    -0.3249339
N           3.6048754    -0.7333958    -0.6610956
H           3.4917950     0.0482752    -1.2952812
O           2.5536451    -2.5394778     0.3216999
C           7.6391073    -1.1434514     0.1330416
H           8.7113046    -1.1818825     0.2962083
C           6.7763787    -2.0828306     0.7029038
H           7.1665730    -2.8812163     1.3286492
C           5.4076990    -2.0025367     0.4713922
H           4.7039813    -2.7098264     0.8866320
C           4.9525825    -0.9536884    -0.3444668
N           5.7643964    -0.0431027    -0.9006778
C           7.0757898    -0.1471485    -0.6600187
H           7.7016327     0.6097907    -1.1299884
C          -2.4290821    -2.4296559     0.4659058
H          -3.3941060    -2.8008379     0.7995351
C          -1.9822481    -1.1728606     0.8768513
H          -2.5937426    -0.5634831     1.5367426
C          -0.7377255    -0.7012515     0.4582739
H          -0.3753731     0.2666296     0.7968396
C           0.0487602    -1.4719436    -0.4034983
C          -0.3947043    -2.7325808    -0.8117695
H           0.2320645    -3.3266964    -1.4681792
C          -1.6285649    -3.2096134    -0.3715780
H          -1.9684953    -4.1910626    -0.6906227
27
189_C12H11N3O_2-0-22-20 (120,) energy =    -703.4068821
N           1.3168696    -0.9370311    -0.7473706
H           1.3345255     0.0668635    -0.8813984
C           2.5135251    -1.5067673    -0.3047096
N           3.6068688    -0.6984978    -0.5798002
H           3.4804945     0.1506443    -1.1174167
O           2.5823998    -2.6028993     0.2278215
C           7.6597232    -1.1768514     0.0705444
H           8.7356807    -1.2275876     0.2026302
C           6.8123180    -2.1761601     0.5547987
H           7.2192589    -3.0360001     1.0803815
C           5.4381648    -2.0769246     0.3662905
H           4.7461329    -2.8279956     0.7195183
C           4.9619291    -0.9475744    -0.3194548
N           5.7586014     0.0216691    -0.7919130
C           7.0755232    -0.1024367    -0.5952037
H           7.6884575     0.7040553    -0.9943143
C          -2.4647671    -2.4128278     0.4139655
H          -3.4404875    -2.7905368     0.7063147
C          -2.1037050    -1.0965541     0.7041104
H          -2.7946166    -0.4430698     1.2297977
C          -0.8454085    -0.6179433     0.3393129
H          -0.5547921     0.4008095     0.5870347
C           0.0474548    -1.4448555    -0.3515495
C          -0.3106300    -2.7658753    -0.6420546
H           0.3917821    -3.4066706    -1.1618212
C          -1.5607223    -3.2432767    -0.2521116
H          -1.8320097    -4.2707783    -0.4786941
27
189_C12H11N3O_2-0-22-20 (135,) energy =    -703.4083637
N           1.3209485    -0.9054875    -0.5963475
H           1.3371566     0.1019828    -0.6920516
C           2.5284452    -1.5095823    -0.2496781
N           3.6123221    -0.6758967    -0.4856247
H           3.4694129     0.2214694    -0.9331951
O           2.6189357    -2.6486579     0.1819707
C           7.6844480    -1.1929422    -0.0111578
H           8.7641262    -1.2511912     0.0813150
C           6.8552105    -2.2363182     0.4069601
H           7.2800046    -3.1387279     0.8386613
C           5.4754697    -2.1267362     0.2728067
H           4.7970150    -2.9100700     0.5789647
C           4.9753393    -0.9418793    -0.2913452
N           5.7545664     0.0703145    -0.6984984
C           7.0773996    -0.0646523    -0.5566143
H           7.6755862     0.7779030    -0.8996438
C          -2.5151711    -2.3955649     0.3368389
H          -3.5075693    -2.7704758     0.5702680
C          -2.2102476    -1.0469620     0.5244605
H          -2.9618041    -0.3627636     0.9089961
C          -0.9328077    -0.5700097     0.2350469
H          -0.6927948     0.4784416     0.4009375
C           0.0460844    -1.4346434    -0.2713283
C          -0.2569843    -2.7887876    -0.4637547
H           0.5044034    -3.4589507    -0.8410390
C          -1.5317152    -3.2584807    -0.1513289
H          -1.7579631    -4.3109069    -0.3001772
27
189_C12H11N3O_2-0-22-20 (150,) energy =    -703.4093406
N           1.3242844    -0.8959778    -0.4338087
H           1.3402873     0.1129694    -0.5038358
C           2.5408188    -1.5236236    -0.1922090
N           3.6145938    -0.6653141    -0.3874430
H           3.4559981     0.2715569    -0.7382295
O           2.6538151    -2.6965709     0.1332247
C           7.7023053    -1.1951609    -0.0962714
H           8.7846899    -1.2539321    -0.0451490
C           6.8918933    -2.2782705     0.2517289
H           7.3345814    -3.2132540     0.5848740
C           5.5079472    -2.1669661     0.1738826
H           4.8438584    -2.9799808     0.4297746
C           4.9841325    -0.9392243    -0.2626167
N           5.7452379     0.1116230    -0.6006244
C           7.0725887    -0.0260014    -0.5153805
H           7.6553345     0.8488362    -0.7990154
C          -2.5631728    -2.3816709     0.2618170
H          -3.5700675    -2.7505598     0.4344794
C          -2.2876660    -1.0162395     0.3458585
H          -3.0778583    -0.3103127     0.5869767
C          -0.9937183    -0.5470682     0.1320710
H          -0.7833700     0.5180588     0.2115351
C           0.0417805    -1.4381005    -0.1859369
C          -0.2311541    -2.8107131    -0.2758711
H           0.5671430    -3.5017050    -0.5081890
C          -1.5286061    -3.2669118    -0.0454958
H          -1.7294327    -4.3327946    -0.1141812
27
189_C12H11N3O_2-0-22-20 (165,) energy =    -703.4098759
N           1.3293689    -0.8920959    -0.2741482
H           1.3427866     0.1145094    -0.3666727
C           2.5514154    -1.5309674    -0.1297825
N           3.6173817    -0.6538399    -0.2851208
H           3.4477577     0.3176325    -0.5158688
O           2.6816827    -2.7260395     0.0974004
C           7.7141179    -1.1836127    -0.1765649
H           8.7978013    -1.2396307    -0.1658326
C           6.9189913    -2.3036370     0.0769291
H           7.3755744    -3.2659621     0.2928394
C           5.5328413    -2.1945286     0.0548282
H           4.8804103    -3.0348586     0.2433267
C           4.9907293    -0.9305424    -0.2294664
N           5.7371206     0.1561342    -0.4749861
C           7.0669439     0.0195007    -0.4463012
H           7.6371289     0.9241378    -0.6509627
C          -2.5930159    -2.3742184     0.1932954
H          -3.6097262    -2.7383196     0.3088024
C          -2.3336380    -1.0032762     0.1565541
H          -3.1465079    -0.2874251     0.2444112
C          -1.0290396    -0.5394987     0.0127812
H          -0.8352962     0.5316929    -0.0085701
C           0.0399259    -1.4419901    -0.1053618
C          -0.2159147    -2.8211781    -0.0716621
H           0.6049913    -3.5189269    -0.1538829
C          -1.5283094    -3.2689635     0.0803419
H          -1.7147073    -4.3394156     0.1071567
27
189_C12H11N3O_2-0-22-20 (180,) energy =    -703.4100476
N           1.3280667    -0.8804970    -0.1215115
H           1.3386360     0.1234591    -0.2380882
C           2.5518393    -1.5282143    -0.0770218
N           3.6138596    -0.6408660    -0.1997746
H           3.4397960     0.3508006    -0.3093284
O           2.6891561    -2.7370181     0.0553880
C           7.7118827    -1.1678770    -0.2426767
H           8.7955002    -1.2220919    -0.2636451
C           6.9234116    -2.3108409    -0.0914203
H           7.3850871    -3.2895246     0.0095876
C           5.5371148    -2.2039081    -0.0688210
H           4.8896466    -3.0611830     0.0459303
C           4.9880964    -0.9182518    -0.2030267
N           5.7282000     0.1905150    -0.3491421
C           7.0583712     0.0554876    -0.3669456
H           7.6233218     0.9783825    -0.4872551
C          -2.6062875    -2.3843033     0.1283850
H          -3.6259017    -2.7531986     0.1908268
C          -2.3557258    -1.0199455    -0.0266750
H          -3.1793549    -0.3135519    -0.0863082
C          -1.0478504    -0.5507745    -0.1062651
H          -0.8626174     0.5154034    -0.2269121
C           0.0360264    -1.4409080    -0.0321994
C          -0.2104043    -2.8136136     0.1237377
H           0.6206893    -3.5014726     0.1813268
C          -1.5277868    -3.2662650     0.2018862
H          -1.7063817    -4.3315827     0.3225929
