27
189_C12H11N3O_0-2-3-12 (-165,) energy =    -703.4095993
N           1.3358748    -0.8857912    -0.0594081
H           1.3513954     0.1121514    -0.2188839
C           2.5554511    -1.5232989     0.0964833
N           3.6186536    -0.6264482     0.0809234
H           3.4393158     0.3657906    -0.0165742
O           2.6912830    -2.7318973     0.2306063
C           7.6867748    -1.1697144    -0.4070357
H           8.7618068    -1.2279936    -0.5432236
C           6.9112241    -2.3114623    -0.1923857
H           7.3752893    -3.2935144    -0.1556197
C           5.5362890    -2.1977167    -0.0180898
H           4.8994556    -3.0528832     0.1571949
C           4.9839725    -0.9080112    -0.0780996
N           5.7114968     0.1997273    -0.2808036
C           7.0320086     0.0587930    -0.4383416
H           7.5875328     0.9812299    -0.5990962
C          -2.6029643    -2.3946506     0.0455372
H          -3.6237183    -2.7648945     0.0692868
C          -2.3479383    -1.0363064    -0.1498165
H          -3.1687540    -0.3360359    -0.2794124
C          -1.0387081    -0.5650885    -0.1793732
H          -0.8499611     0.4965715    -0.3304769
C           0.0416748    -1.4471800    -0.0148223
C          -0.2092104    -2.8140296     0.1800256
H           0.6194119    -3.4963345     0.3029866
C          -1.5278897    -3.2686980     0.2089202
H          -1.7101913    -4.3293536     0.3610217
27
189_C12H11N3O_0-2-3-12 (-150,) energy =    -703.4081680
N           1.3630038    -0.9151748     0.0074118
H           1.3978390     0.0755877    -0.1891045
C           2.5620564    -1.5470389     0.2869028
N           3.6274742    -0.6489870     0.3659637
H           3.4373705     0.3435119     0.2853293
O           2.6891150    -2.7540848     0.4376027
C           7.6248676    -1.1541103    -0.5650444
H           8.6796286    -1.2042434    -0.8152376
C           6.8789832    -2.3049372    -0.2985097
H           7.3465292    -3.2853540    -0.3344480
C           5.5308664    -2.2003546     0.0255114
H           4.9184303    -3.0616994     0.2523006
C           4.9723177    -0.9125373     0.0517898
N           5.6711866     0.2031872    -0.1971871
C           6.9689471     0.0720336    -0.4945003
H           7.5033380     1.0006601    -0.6878037
C          -2.5882774    -2.3932177    -0.0543480
H          -3.6118898    -2.7556911    -0.0750053
C          -2.3115265    -1.0440934    -0.2815818
H          -3.1180692    -0.3434520    -0.4802327
C          -0.9987313    -0.5825855    -0.2535049
H          -0.7925068     0.4721076    -0.4285207
C           0.0626734    -1.4660353     0.0005356
C          -0.2093759    -2.8239668     0.2258288
H           0.6056375    -3.5077908     0.4144599
C          -1.5315232    -3.2685155     0.1978744
H          -1.7311168    -4.3221517     0.3748800
27
189_C12H11N3O_0-2-3-12 (-135,) energy =    -703.4056351
N           1.4158930    -0.9476140     0.1012695
H           1.4889341     0.0280536    -0.1518536
C           2.5755346    -1.5818812     0.5056874
N           3.6501270    -0.6924441     0.6530107
H           3.4429512     0.3000914     0.6178294
O           2.6802213    -2.7856671     0.6888929
C           7.5245524    -1.1221254    -0.7338162
H           8.5452471    -1.1552626    -1.1008557
C           6.8164819    -2.2881638    -0.4304449
H           7.2807702    -3.2629444    -0.5542083
C           5.5135153    -2.2037237     0.0464578
H           4.9332424    -3.0767372     0.3128802
C           4.9568770    -0.9218434     0.1796573
N           5.6191419     0.2071664    -0.1014587
C           6.8778776     0.0958034    -0.5431668
H           7.3857360     1.0346537    -0.7573109
C          -2.5498345    -2.3634520    -0.1614566
H          -3.5763225    -2.7106578    -0.2346957
C          -2.2325143    -1.0330623    -0.4402401
H          -3.0099771    -0.3321119    -0.7318514
C          -0.9162388    -0.5907285    -0.3440596
H          -0.6779484     0.4497244    -0.5587174
C           0.1071885    -1.4758614     0.0298876
C          -0.2049688    -2.8153723     0.3060543
H           0.5828628    -3.5009761     0.5836215
C          -1.5302685    -3.2405106     0.2099193
H          -1.7619201    -4.2798841     0.4273939
27
189_C12H11N3O_0-2-3-12 (-120,) energy =    -703.4021550
N           1.4862061    -0.9844509     0.2125766
H           1.6085618    -0.0288227    -0.0927595
C           2.5923146    -1.6135273     0.7471048
N           3.6852628    -0.7370055     0.9257342
H           3.4683930     0.2551820     0.9304338
O           2.6611715    -2.8063847     0.9971541
C           7.3802228    -1.0840632    -0.9079954
H           8.3530614    -1.0992109    -1.3885458
C           6.7170694    -2.2646252    -0.5598663
H           7.1695194    -3.2318252    -0.7620127
C           5.4772043    -2.2018643     0.0642019
H           4.9361494    -3.0865975     0.3742286
C           4.9323945    -0.9285401     0.2945658
N           5.5509734     0.2126208    -0.0290685
C           6.7538405     0.1228625    -0.6115983
H           7.2300124     1.0711089    -0.8550799
C          -2.4790606    -2.3359758    -0.2895158
H          -3.5043327    -2.6675079    -0.4255949
C          -2.1122924    -1.0267612    -0.6055001
H          -2.8497735    -0.3269827    -0.9891595
C          -0.7978497    -0.6043286    -0.4281045
H          -0.5211516     0.4200743    -0.6715569
C           0.1735536    -1.4893327     0.0649804
C          -0.1876067    -2.8078405     0.3786491
H           0.5619756    -3.4932773     0.7478078
C          -1.5108375    -3.2127697     0.2008525
H          -1.7815571    -4.2358610     0.4481754
27
189_C12H11N3O_0-2-3-12 (-105,) energy =    -703.3981655
N           1.5685698    -1.0268265     0.3318786
H           1.7434457    -0.0927159    -0.0127554
C           2.6067722    -1.6439963     0.9955757
N           3.7282970    -0.7865074     1.1871420
H           3.5026288     0.2032717     1.2414934
O           2.6206314    -2.8150483     1.3330107
C           7.1885242    -1.0494642    -1.0738420
H           8.1003413    -1.0460764    -1.6621450
C           6.5641708    -2.2429248    -0.6973454
H           6.9869130    -3.2016774    -0.9856578
C           5.4039623    -2.2019339     0.0651267
H           4.9005798    -3.0995767     0.4030983
C           4.8938682    -0.9382789     0.4051537
N           5.4747138     0.2139579     0.0540307
C           6.6046731     0.1450231    -0.6633711
H           7.0541915     1.1016072    -0.9243261
C          -2.3780890    -2.3141936    -0.4194978
H          -3.3975100    -2.6297413    -0.6215192
C          -1.9522400    -1.0332856    -0.7752238
H          -2.6371376    -0.3403566    -1.2563193
C          -0.6456763    -0.6307697    -0.5133613
H          -0.3217637     0.3712938    -0.7891391
C           0.2574499    -1.5083760     0.1058372
C          -0.1625384    -2.7985047     0.4606650
H           0.5359169    -3.4779719     0.9282535
C          -1.4772840    -3.1835080     0.1965777
H          -1.7948592    -4.1844887     0.4763947
27
189_C12H11N3O_0-2-3-12 (-90,) energy =    -703.3989522
N           1.5976221    -0.9304285     0.4204526
H           1.8210568    -0.1089013    -0.1255307
C           2.5409072    -1.2705766     1.3552682
N           3.6926016    -0.4123195     1.2616397
H           4.0584213    -0.2409571     2.1960572
O           2.4193243    -2.1200335     2.2189287
C           7.0034261    -1.2212867    -1.1061599
H           7.9099882    -1.3904283    -1.6776836
C           5.7557523    -1.6435947    -1.5714272
H           5.6648811    -2.1579261    -2.5245128
C           4.6201453    -1.4049589    -0.8070392
H           3.6417068    -1.7281243    -1.1454121
C           4.7801422    -0.7456157     0.4243490
N           5.9700761    -0.3432656     0.8858614
C           7.0477087    -0.5782925     0.1282436
H           7.9950391    -0.2349673     0.5408379
C          -2.1209032    -2.6711213    -0.5320446
H          -3.0815673    -3.1071816    -0.7901070
C          -1.6270380    -1.5792513    -1.2483642
H          -2.1990987    -1.1575032    -2.0702670
C          -0.3952337    -1.0221464    -0.9168991
H          -0.0128283    -0.1731150    -1.4803716
C           0.3588889    -1.5502013     0.1421307
C          -0.1327726    -2.6446354     0.8683967
H           0.4456476    -3.0447731     1.6895253
C          -1.3671733    -3.1932197     0.5197890
H          -1.7419172    -4.0411255     1.0869175
27
189_C12H11N3O_0-2-3-12 (-75,) energy =    -703.4010908
N           1.6588698    -1.0061540     0.4495155
H           1.9464546    -0.2415543    -0.1467375
C           2.5240693    -1.3094654     1.4727788
N           3.7305797    -0.5536921     1.3910481
H           4.1303576    -0.4444954     2.3194206
O           2.2855164    -2.0484691     2.4119506
C           6.9233146    -1.1138425    -1.2007858
H           7.8042193    -1.2174944    -1.8255892
C           5.6663978    -1.5511978    -1.6229256
H           5.5418537    -2.0164483    -2.5971576
C           4.5647594    -1.3970655    -0.7887667
H           3.5855653    -1.7480828    -1.0931967
C           4.7673997    -0.7994403     0.4679656
N           5.9696228    -0.3860152     0.8900410
C           7.0115573    -0.5442353     0.0672082
H           7.9687363    -0.1967291     0.4525265
C          -2.0928752    -2.6358327    -0.5742940
H          -3.0600372    -3.0449144    -0.8515222
C          -1.5050257    -1.6302213    -1.3436755
H          -2.0098030    -1.2488102    -2.2271083
C          -0.2649412    -1.1080886    -0.9868182
H           0.1892440    -0.3262286    -1.5927588
C           0.4044708    -1.5833956     0.1515439
C          -0.1829059    -2.5904609     0.9313172
H           0.3282915    -2.9478291     1.8142913
C          -1.4237686    -3.1060873     0.5562707
H          -1.8717064    -3.8862266     1.1660279
27
189_C12H11N3O_0-2-3-12 (-60,) energy =    -703.4028582
N           1.7140994    -1.1121816     0.4581779
H           2.0623230    -0.4081339    -0.1788581
C           2.5123178    -1.3783836     1.5475428
N           3.7676884    -0.7312979     1.4797510
H           4.1805094    -0.6428542     2.4029284
O           2.1767027    -2.0134012     2.5335987
C           6.8693001    -0.9795776    -1.2620270
H           7.7276163    -1.0002720    -1.9252380
C           5.6307531    -1.4940727    -1.6477034
H           5.4992209    -1.9414744    -2.6293531
C           4.5560858    -1.4472856    -0.7658337
H           3.5984151    -1.8737095    -1.0391190
C           4.7654960    -0.8687757     0.4991825
N           5.9549428    -0.3861010     0.8870735
C           6.9713438    -0.4477506     0.0218448
H           7.9182654    -0.0492788     0.3825519
C          -2.1025694    -2.5679127    -0.5892173
H          -3.0847030    -2.9335263    -0.8744210
C          -1.4261492    -1.6548862    -1.4000722
H          -1.8760954    -1.3026900    -2.3243531
C          -0.1671257    -1.1883651    -1.0327018
H           0.3558811    -0.4785768    -1.6711629
C           0.4334225    -1.6264117     0.1580455
C          -0.2432515    -2.5402719     0.9794592
H           0.2136529    -2.8680210     1.9026349
C          -1.5020027    -3.0013941     0.5933109
H          -2.0188665    -3.7091262     1.2360471
27
189_C12H11N3O_0-2-3-12 (-45,) energy =    -703.4040650
N           1.7706654    -1.2356248     0.4501612
H           2.1720929    -0.5975680    -0.2238939
C           2.5154789    -1.4616587     1.5874464
N           3.8122137    -0.9224023     1.5304847
H           4.2218293    -0.8226445     2.4524818
O           2.1060240    -1.9977067     2.6051355
C           6.8324119    -0.8485148    -1.3051087
H           7.6686043    -0.7837485    -1.9932144
C           5.6292775    -1.4539632    -1.6685501
H           5.5054688    -1.8916876    -2.6555383
C           4.5817105    -1.5170675    -0.7550798
H           3.6603331    -2.0279069    -1.0070945
C           4.7786611    -0.9465159     0.5161386
N           5.9391691    -0.3812053     0.8834267
C           6.9316050    -0.3435758    -0.0096534
H           7.8556553     0.1173587     0.3356941
C          -2.1216997    -2.4871296    -0.5859104
H          -3.1218117    -2.8016767    -0.8695508
C          -1.3710309    -1.6704838    -1.4333344
H          -1.7805036    -1.3427278    -2.3850533
C          -0.0893782    -1.2690580    -1.0673691
H           0.4906797    -0.6336421    -1.7343624
C           0.4611130    -1.6765446     0.1581390
C          -0.2900516    -2.4940193     1.0157673
H           0.1277488    -2.7977948     1.9651527
C          -1.5710630    -2.8905514     0.6310281
H          -2.1453516    -3.5233949     1.3025296
27
189_C12H11N3O_0-2-3-12 (-30,) energy =    -703.4047696
N           1.8158777    -1.3639602     0.4335023
H           2.2626735    -0.7956476    -0.2735487
C           2.5172560    -1.5402037     1.6076111
N           3.8477431    -1.1036897     1.5592260
H           4.2424301    -0.9600314     2.4810544
O           2.0500672    -1.9757905     2.6488371
C           6.7924809    -0.7293242    -1.3283618
H           7.6071242    -0.5847507    -2.0300633
C           5.6384504    -1.4303945    -1.6783343
H           5.5347230    -1.8671613    -2.6680209
C           4.6187868    -1.5947545    -0.7457648
H           3.7445709    -2.1891509    -0.9829555
C           4.7883544    -1.0201940     0.5280954
N           5.9057731    -0.3659458     0.8830843
C           6.8750367    -0.2369207    -0.0266054
H           7.7652838     0.2925354     0.3090579
C          -2.1469313    -2.3994556    -0.5765775
H          -3.1639000    -2.6603906    -0.8546641
C          -1.3396954    -1.6710988    -1.4519465
H          -1.7215277    -1.3590148    -2.4203049
C          -0.0368538    -1.3377820    -1.0924785
H           0.5864368    -0.7700675    -1.7812232
C           0.4796510    -1.7264242     0.1538649
C          -0.3280494    -2.4561276     1.0388855
H           0.0636239    -2.7451543     2.0037600
C          -1.6303297    -2.7842190     0.6611380
H          -2.2482147    -3.3488200     1.3544638
27
189_C12H11N3O_0-2-3-12 (-15,) energy =    -703.4050371
N           1.8569949    -1.4911103     0.4198976
H           2.3426127    -0.9959806    -0.3159333
C           2.5262488    -1.6183115     1.6189055
N           3.8854107    -1.2839241     1.5761142
H           4.2615520    -1.0838280     2.4950153
O           2.0177491    -1.9589606     2.6763222
C           6.7405503    -0.6120010    -1.3462894
H           7.5284725    -0.3890432    -2.0579343
C           5.6470450    -1.4075664    -1.6883386
H           5.5674913    -1.8424696    -2.6810392
C           4.6618828    -1.6713423    -0.7413607
H           3.8436882    -2.3452980    -0.9672648
C           4.7982469    -1.0938208     0.5353229
N           5.8611769    -0.3509130     0.8828906
C           6.8022330    -0.1305809    -0.0390350
H           7.6500778     0.4678856     0.2902445
C          -2.1636724    -2.3051471    -0.5662997
H          -3.1945850    -2.5111379    -0.8391720
C          -1.3072892    -1.6705913    -1.4675927
H          -1.6644256    -1.3771988    -2.4511231
C           0.0131190    -1.4069532    -1.1144483
H           0.6742286    -0.9112159    -1.8232313
C           0.4991602    -1.7733166     0.1507751
C          -0.3576003    -2.4098872     1.0611778
H           0.0110971    -2.6819085     2.0398938
C          -1.6775379    -2.6678078     0.6902837
H          -2.3333334    -3.1600491     1.4036691
27
189_C12H11N3O_0-2-3-12 (0,) energy =    -703.4048697
N           1.8914507    -1.6229193     0.4046980
H           2.4101176    -1.2088658    -0.3580134
C           2.5386537    -1.6988734     1.6192876
N           3.9220464    -1.4691530     1.5797493
H           4.2799134    -1.2233537     2.4955113
O           2.0016714    -1.9461644     2.6885046
C           6.6783636    -0.4951136    -1.3536818
H           7.4356058    -0.1936085    -2.0697123
C           5.6542571    -1.3766535    -1.6997245
H           5.6018657    -1.8015815    -2.6984920
C           4.7084678    -1.7407828    -0.7456127
H           3.9530332    -2.4860214    -0.9688633
C           4.8069441    -1.1709571     0.5376523
N           5.8064812    -0.3471461     0.8887008
C           6.7156730    -0.0328102    -0.0383860
H           7.5143952     0.6288236     0.2926788
C          -2.1762404    -2.2059463    -0.5538480
H          -3.2187195    -2.3545605    -0.8200183
C          -1.2772166    -1.6809892    -1.4836262
H          -1.6124351    -1.4162477    -2.4828840
C           0.0578408    -1.4901437    -1.1387431
H           0.7520873    -1.0788174    -1.8695413
C           0.5165581    -1.8218963     0.1460375
C          -0.3827496    -2.3496191     1.0844966
H          -0.0344344    -2.5956665     2.0774100
C          -1.7172439    -2.5344314     0.7221591
H          -2.4059393    -2.9421567     1.4575294
27
189_C12H11N3O_0-2-3-12 (15,) energy =    -703.4050371
N           1.8408812    -1.6000961    -0.5483633
H           2.3555879    -0.9498827     0.0301905
C           2.4565051    -2.0037629    -1.7144505
N           3.8138558    -1.6734688    -1.8117798
H           4.1469617    -1.6928288    -2.7681091
O           1.9034341    -2.5780485    -2.6402219
C           6.7925516    -0.3537546     0.7435027
H           7.6100513     0.0250031     1.3478261
C           5.7210787    -1.0446089     1.3094904
H           5.6892031    -1.2376720     2.3784313
C           4.6962627    -1.5168286     0.4948432
H           3.8937547    -2.1172495     0.9073562
C           4.7711467    -1.2509477    -0.8856448
N           5.8121956    -0.6124882    -1.4434280
C           6.7921299    -0.1881716    -0.6410789
H           7.6201441     0.3147776    -1.1379315
C          -2.1256680    -2.1492943     0.7804970
H          -3.1418254    -2.2828222     1.1400337
C          -1.2341117    -1.3265137     1.4708170
H          -1.5487510    -0.8122146     2.3749499
C           0.0672359    -1.1565257     1.0068213
H           0.7560425    -0.5126348     1.5510129
C           0.4985037    -1.8074622    -0.1600286
C          -0.3938250    -2.6343080    -0.8587195
H          -0.0675680    -3.1267443    -1.7636400
C          -1.6939446    -2.7946298    -0.3788166
H          -2.3776729    -3.4362050    -0.9285302
27
189_C12H11N3O_0-2-3-12 (30,) energy =    -703.4047696
N           1.7983004    -1.4793788    -0.5892064
H           2.2724423    -0.7644933    -0.0538052
C           2.4475006    -1.9251943    -1.7211548
N           3.7757538    -1.4941718    -1.8353701
H           4.1276681    -1.5692207    -2.7823164
O           1.9371003    -2.5882909    -2.6110703
C           6.8443898    -0.4721732     0.7508899
H           7.6886598    -0.1720371     1.3624913
C           5.7121476    -1.0690388     1.3054582
H           5.6559676    -1.2644886     2.3730011
C           4.6528463    -1.4411283     0.4833620
H           3.7943271    -1.9613345     0.8909779
C           4.7610753    -1.1776472    -0.8952091
N           5.8568475    -0.6273621    -1.4421569
C           6.8650249    -0.2947620    -0.6318421
H           7.7355998     0.1394109    -1.1208486
C          -2.1077935    -2.2387205     0.8115754
H          -3.1093940    -2.4245431     1.1882862
C          -1.2671076    -1.3305644     1.4572575
H          -1.6071824    -0.8015498     2.3434874
C           0.0159102    -1.0941899     0.9717627
H           0.6655702    -0.3848239     1.4815691
C           0.4785562    -1.7624797    -0.1730257
C          -0.3630222    -2.6741715    -0.8277573
H          -0.0131098    -3.1799823    -1.7163765
C          -1.6446924    -2.9012434    -0.3257289
H          -2.2891801    -3.6086622    -0.8409488
27
189_C12H11N3O_0-2-3-12 (45,) energy =    -703.4040650
N           1.7514498    -1.3581565    -0.6333106
H           2.1783116    -0.5828376    -0.1441470
C           2.4461194    -1.8443745    -1.7197121
N           3.7403514    -1.3113883    -1.8478569
H           4.1075283    -1.4294422    -2.7854381
O           1.9952416    -2.6002644    -2.5659018
C           6.8838131    -0.5934192     0.7541505
H           7.7494480    -0.3740188     1.3701355
C           5.7024626    -1.0939906     1.3018970
H           5.6259683    -1.2908158     2.3679602
C           4.6155570    -1.3632449     0.4761093
H           3.7100329    -1.7985972     0.8809595
C           4.7513791    -1.1033151    -0.9002318
N           5.8902687    -0.6425340    -1.4404728
C           6.9213952    -0.4025914    -0.6261385
H           7.8258028    -0.0374402    -1.1101934
C          -2.0813852    -2.3219002     0.8399049
H          -3.0654730    -2.5585969     1.2338062
C          -1.2988785    -1.3343486     1.4407161
H          -1.6671804    -0.7940049     2.3086125
C          -0.0378423    -1.0331572     0.9339939
H           0.5673960    -0.2630174     1.4090439
C           0.4595269    -1.7148546    -0.1879967
C          -0.3239507    -2.7055473    -0.7985132
H           0.0526872    -3.2220318    -1.6700396
C          -1.5835242    -2.9976859    -0.2746994
H          -2.1831799    -3.7664101    -0.7550029
27
189_C12H11N3O_0-2-3-12 (60,) energy =    -703.4028582
N           1.6937254    -1.2397371    -0.6667010
H           2.0653052    -0.4086773    -0.2262179
C           2.4440569    -1.7536324    -1.6999702
N           3.6966564    -1.1129462    -1.8406268
H           4.0669729    -1.2419759    -2.7769585
O           2.0689384    -2.5983435    -2.4961744
C           6.9199345    -0.7312879     0.7408049
H           7.8072942    -0.6010621     1.3512293
C           5.7035853    -1.1381376     1.2907307
H           5.6194074    -1.3458059     2.3541653
C           4.5900933    -1.2927917     0.4715776
H           3.6486643    -1.6409754     0.8791747
C           4.7384299    -1.0234130    -0.9010925
N           5.9058532    -0.6478572    -1.4435862
C           6.9604954    -0.5113031    -0.6345280
H           7.8874529    -0.2105040    -1.1201408
C          -2.0617436    -2.3999562     0.8609020
H          -3.0274868    -2.6861514     1.2671456
C          -1.3559439    -1.3265876     1.4071380
H          -1.7663378    -0.7685425     2.2443663
C          -0.1179958    -0.9622354     0.8851454
H           0.4282127    -0.1259129     1.3177990
C           0.4314620    -1.6659807    -0.1980271
C          -0.2750602    -2.7426003    -0.7543232
H           0.1421585    -3.2766374    -1.5964440
C          -1.5119279    -3.0973578    -0.2153379
H          -2.0522088    -3.9326910    -0.6528965
27
189_C12H11N3O_0-2-3-12 (75,) energy =    -703.4010908
N           1.6381352    -1.1343224    -0.6805695
H           1.9469210    -0.2535741    -0.2909918
C           2.4586725    -1.6694816    -1.6438751
N           3.6623624    -0.9197360    -1.7939801
H           4.0193253    -1.0299174    -2.7395289
O           2.1833853    -2.6050478    -2.3746422
C           6.9718933    -0.8760961     0.7100133
H           7.8806026    -0.8354404     1.3013745
C           5.7382950    -1.1995000     1.2783103
H           5.6607743    -1.4262549     2.3383446
C           4.5993469    -1.2387265     0.4818028
H           3.6373372    -1.5063836     0.9032405
C           4.7411998    -0.9488431    -0.8869388
N           5.9203540    -0.6485238    -1.4471367
C           6.9992076    -0.6156948    -0.6580175
H           7.9356854    -0.3701550    -1.1561583
C          -2.0520856    -2.4694942     0.8617740
H          -3.0028810    -2.7997973     1.2698050
C          -1.4371559    -1.3154313     1.3504206
H          -1.9041589    -0.7382731     2.1438478
C          -0.2180995    -0.8944716     0.8265275
H           0.2575470     0.0045928     1.2140793
C           0.4025434    -1.6224865    -0.2004534
C          -0.2124027    -2.7803555    -0.6988717
H           0.2609648    -3.3339826    -1.4976822
C          -1.4314562    -3.1908207    -0.1587820
H          -1.9010136    -4.0891290    -0.5507407
27
189_C12H11N3O_0-2-3-12 (90,) energy =    -703.3989523
N           1.5778077    -1.0537853    -0.6668030
H           1.8198368    -0.1290528    -0.3363197
C           2.4804977    -1.6044203    -1.5393372
N           3.6292069    -0.7519368    -1.6990599
H           3.9514765    -0.8027333    -2.6633665
O           2.3261505    -2.6301955    -2.1766999
C           7.0485829    -1.0029529     0.6391762
H           7.9810552    -1.0385122     1.1926512
C           5.8260350    -1.3016668     1.2455221
H           5.7816567    -1.5811838     2.2948392
C           4.6556133    -1.2423019     0.4989106
H           3.6956334    -1.4748929     0.9468103
C           4.7555571    -0.8863500    -0.8575392
N           5.9207299    -0.6059753    -1.4530105
C           7.0329046    -0.6631898    -0.7111825
H           7.9583329    -0.4280486    -1.2344718
C          -2.0819024    -2.5135190     0.8300544
H          -3.0269214    -2.8746198     1.2252341
C          -1.5639510    -1.2873764     1.2513569
H          -2.1014140    -0.6849212     1.9785639
C          -0.3522153    -0.8264902     0.7445420
H           0.0492012     0.1284538     1.0785122
C           0.3571977    -1.5878738    -0.1967974
C          -0.1589833    -2.8188180    -0.6272753
H           0.3847121    -3.4001030    -1.3590103
C          -1.3725996    -3.2674383    -0.1056490
H          -1.7665373    -4.2221603    -0.4437767
27
189_C12H11N3O_0-2-3-12 (105,) energy =    -703.3981653
N           1.5492495    -1.1298246    -0.5501365
H           1.7348309    -0.1423445    -0.4389638
C           2.5594473    -1.8894996    -1.0993631
N           3.6668334    -1.1057915    -1.5344747
H           3.4339102    -0.1541458    -1.8058885
O           2.5638736    -3.1068920    -1.1572677
C           7.2272134    -0.8574359     0.5672715
H           8.1646746    -0.7228208     1.0969607
C           6.5928533    -2.1022931     0.5055323
H           7.0333309    -2.9706179     0.9882700
C           5.3991504    -2.2325638    -0.1924911
H           4.8859294    -3.1814372    -0.2905617
C           4.8673539    -1.0791382    -0.7920735
N           5.4573511     0.1199600    -0.7434716
C           6.6189507     0.2127754    -0.0814265
H           7.0746722     1.2014032    -0.0693276
C          -2.3527892    -2.1864682     0.6562277
H          -3.3604249    -2.4410085     0.9716341
C          -1.9176135    -0.8604552     0.6866968
H          -2.5834075    -0.0712441     1.0251525
C          -0.6262827    -0.5367340     0.2800432
H          -0.2951472     0.5000777     0.3018514
C           0.2521594    -1.5387698    -0.1598348
C          -0.1770663    -2.8735828    -0.1875757
H           0.5028037    -3.6466662    -0.5166247
C          -1.4765563    -3.1796975     0.2175688
H          -1.8015309    -4.2164305     0.1912931
27
189_C12H11N3O_0-2-3-12 (120,) energy =    -703.4021549
N           1.4722030    -1.0603202    -0.4403178
H           1.6032986    -0.0606645    -0.3701106
C           2.5562095    -1.8020130    -0.8642981
N           3.6354385    -0.9965556    -1.2900069
H           3.4135150    -0.0311774    -1.5142468
O           2.6198431    -3.0207167    -0.8344793
C           7.4112120    -0.9308885     0.4054316
H           8.4048596    -0.8400638     0.8320318
C           6.7388397    -2.1561901     0.3700436
H           7.2047266    -3.0529990     0.7697102
C           5.4717134    -2.2324095    -0.1949714
H           4.9215296    -3.1617565    -0.2672691
C           4.9107972    -1.0437740    -0.6886652
N           5.5377048     0.1377955    -0.6659698
C           6.7661242     0.1783470    -0.1334088
H           7.2481428     1.1544799    -0.1375464
C          -2.4592346    -2.2374542     0.5395869
H          -3.4755683    -2.5229402     0.7948869
C          -2.0852939    -0.8926770     0.5273431
H          -2.8082442    -0.1191343     0.7717563
C          -0.7824282    -0.5298930     0.1977869
H          -0.5002852     0.5215173     0.1849909
C           0.1702057    -1.5102141    -0.1207263
C          -0.1979796    -2.8635282    -0.1043385
H           0.5376396    -3.6198349    -0.3385200
C          -1.5096960    -3.2091407     0.2219605
H          -1.7860551    -4.2602009     0.2304246
27
189_C12H11N3O_0-2-3-12 (135,) energy =    -703.4056349
N           1.4057669    -0.9970296    -0.3387924
H           1.4834132     0.0104153    -0.3194177
C           2.5500287    -1.7108548    -0.6420734
N           3.6114130    -0.8825100    -1.0345678
H           3.4035607     0.0934929    -1.2177138
O           2.6537291    -2.9253501    -0.5525704
C           7.5473890    -1.0043421     0.2348773
H           8.5839938    -0.9581627     0.5526263
C           6.8315544    -2.2045524     0.2413369
H           7.3054656    -3.1273216     0.5653053
C           5.5076250    -2.2244928    -0.1820148
H           4.9195484    -3.1317115    -0.2131821
C           4.9398865    -1.0045216    -0.5817683
N           5.6089503     0.1549475    -0.5992697
C           6.8870004     0.1408025    -0.2016485
H           7.3997630     1.1006440    -0.2329916
C          -2.5339435    -2.2993727     0.4244767
H          -3.5536118    -2.6163502     0.6229591
C          -2.2139810    -0.9417402     0.3711271
H          -2.9825859    -0.1894287     0.5263518
C          -0.9065852    -0.5385862     0.1149821
H          -0.6663831     0.5224108     0.0702245
C           0.1054172    -1.4900452    -0.0884066
C          -0.2092084    -2.8559733    -0.0306477
H           0.5701151    -3.5901555    -0.1768198
C          -1.5258168    -3.2423525     0.2217037
H          -1.7595450    -4.3029818     0.2629029
27
189_C12H11N3O_0-2-3-12 (150,) energy =    -703.4081689
N           1.3581780    -0.9441303    -0.2515579
H           1.3966387     0.0650538    -0.2903859
C           2.5463619    -1.6306549    -0.4304252
N           3.6023680    -0.7813599    -0.7642079
H           3.4108954     0.2038187    -0.9073140
O           2.6726542    -2.8403059    -0.3015052
C           7.6402198    -1.0791720     0.0769669
H           8.7054490    -1.0758755     0.2841098
C           6.8891823    -2.2565537     0.1163376
H           7.3631996    -3.2047599     0.3557364
C           5.5272904    -2.2224055    -0.1619121
H           4.9094945    -3.1093860    -0.1564913
C           4.9613611    -0.9722522    -0.4584657
N           5.6647722     0.1671696    -0.5046957
C           6.9753413     0.1012589    -0.2441577
H           7.5129617     1.0466464    -0.2941021
C          -2.5783989    -2.3470107     0.3287295
H          -3.5980522    -2.6896350     0.4787607
C          -2.2990582    -0.9833544     0.2250278
H          -3.0996288    -0.2516253     0.2923502
C          -0.9913868    -0.5475877     0.0318335
H          -0.7832690     0.5179096    -0.0513949
C           0.0623415    -1.4712318    -0.0585165
C          -0.2122140    -2.8430168     0.0489555
H           0.5972470    -3.5560644    -0.0127015
C          -1.5293086    -3.2622972     0.2385041
H          -1.7309059    -4.3272658     0.3192406
27
189_C12H11N3O_0-2-3-12 (165,) energy =    -703.4095990
N           1.3322222    -0.9012210    -0.1960685
H           1.3490832     0.1064769    -0.2724270
C           2.5468622    -1.5639678    -0.2548190
N           3.6049975    -0.6936064    -0.4953738
H           3.4248954     0.2952248    -0.6218187
O           2.6828364    -2.7715070    -0.1116383
C           7.6936609    -1.1309930    -0.0783133
H           8.7740076    -1.1620146     0.0192463
C           6.9152249    -2.2872823     0.0121281
H           7.3822640    -3.2536590     0.1828029
C           5.5332848    -2.2096021    -0.1217859
H           4.8937296    -3.0787554    -0.0657236
C           4.9775278    -0.9380825    -0.3370903
N           5.7076604     0.1825838    -0.4291536
C           7.0346426     0.0749368    -0.3027710
H           7.5920348     1.0065507    -0.3849866
C          -2.5983968    -2.3727512     0.2342826
H          -3.6170742    -2.7329761     0.3443511
C          -2.3422550    -1.0074089     0.0980145
H          -3.1600868    -0.2918293     0.1001345
C          -1.0357673    -0.5489864    -0.0431733
H          -0.8458604     0.5177635    -0.1507356
C           0.0406460    -1.4510045    -0.0492578
C          -0.2112296    -2.8245347     0.0891892
H           0.6145420    -3.5212385     0.0888710
C          -1.5272230    -3.2666097     0.2276688
H          -1.7104272    -4.3327050     0.3336792
27
189_C12H11N3O_0-2-3-12 (180,) energy =    -703.4100471
N           1.3177651    -0.8853638    -0.1377962
H           1.3244248     0.1196003    -0.2456496
C           2.5443804    -1.5273273    -0.0881706
N           3.6025026    -0.6361403    -0.2166479
H           3.4246989     0.3536330    -0.3367567
O           2.6868985    -2.7347781     0.0509556
C           7.7031465    -1.1452018    -0.2447719
H           8.7870788    -1.1942403    -0.2624780
C           6.9192891    -2.2906669    -0.0886818
H           7.3851302    -3.2666090     0.0194520
C           5.5324477    -2.1897728    -0.0707878
H           4.8886710    -3.0493575     0.0474256
C           4.9779427    -0.9074412    -0.2141725
N           5.7134576     0.2036923    -0.3651293
C           7.0442245     0.0742391    -0.3785047
H           7.6053335     0.9988931    -0.5030967
C          -2.6094902    -2.4018464     0.1439527
H          -3.6274327    -2.7738943     0.2143872
C          -2.3648987    -1.0373177    -0.0188870
H          -3.1912272    -0.3339317    -0.0767852
C          -1.0592073    -0.5639966    -0.1087985
H          -0.8787479     0.5022342    -0.2360230
C           0.0283330    -1.4498681    -0.0370113
C          -0.2121514    -2.8227643     0.1263998
H           0.6215867    -3.5075822     0.1820539
C          -1.5274176    -3.2796613     0.2146738
H          -1.7014743    -4.3450434     0.3412955
