27
189_C12H11N3O_22-0-2-3 (-165,) energy =    -703.4095547
N           1.3256197    -0.9318905    -0.4050684
H           1.3381006     0.0689558    -0.5476459
C           2.5520144    -1.5582975    -0.2399287
N           3.6057365    -0.6535796    -0.2576544
H           3.4232936     0.3406148    -0.3200327
O           2.6949650    -2.7647342    -0.0943996
C           7.7080886    -1.1355911    -0.1403923
H           8.7921747    -1.1773994    -0.1152729
C           6.9278400    -2.2925731    -0.0814776
H           7.3967514    -3.2702459    -0.0078183
C           5.5406367    -2.2007329    -0.1144740
H           4.8992468    -3.0688658    -0.0660056
C           4.9824805    -0.9157448    -0.2113830
N           5.7143305     0.2064180    -0.2681959
C           7.0455254     0.0857993    -0.2318658
H           7.6037829     1.0193075    -0.2792749
C          -2.5826101    -2.3552587     0.3073853
H          -3.5952255    -2.7043260     0.4872839
C          -2.3323456    -1.0023371     0.0724692
H          -3.1487520    -0.2851314     0.0685864
C          -1.0331777    -0.5579450    -0.1558523
H          -0.8474331     0.4999982    -0.3342276
C           0.0407868    -1.4625804    -0.1555226
C          -0.2062937    -2.8249841     0.0718476
H           0.6169799    -3.5248055     0.0647867
C          -1.5138087    -3.2520973     0.3048927
H          -1.6931306    -4.3092165     0.4829289
27
189_C12H11N3O_22-0-2-3 (-150,) energy =    -703.4080205
N           1.3170224    -1.0147651    -0.6696441
H           1.3378434    -0.0153918    -0.8265535
C           2.5450906    -1.6170346    -0.4137285
N           3.5729847    -0.6909517    -0.3056732
H           3.3668123     0.3004186    -0.3119689
O           2.7006273    -2.8236712    -0.2886783
C           7.6771173    -1.0918471    -0.0336925
H           8.7597984    -1.1122493     0.0370840
C           6.9228593    -2.2665039    -0.0789228
H           7.4112455    -3.2366905    -0.0425813
C           5.5364621    -2.2017862    -0.1669044
H           4.9139380    -3.0845318    -0.1946442
C           4.9533176    -0.9253508    -0.2133285
N           5.6596002     0.2132975    -0.1694168
C           6.9904595     0.1187746    -0.0799367
H           7.5279312     1.0649090    -0.0449417
C          -2.5379347    -2.3046931     0.4688613
H          -3.5361802    -2.6209096     0.7571489
C          -2.2826059    -0.9677036     0.1600928
H          -3.0799575    -0.2308824     0.2075947
C          -1.0016164    -0.5634371    -0.2063146
H          -0.8094350     0.4826363    -0.4393593
C           0.0459103    -1.4949648    -0.2735776
C          -0.2081908    -2.8425843     0.0215682
H           0.5948691    -3.5632821    -0.0445959
C          -1.4948434    -3.2288673     0.3972417
H          -1.6799278    -4.2744753     0.6291687
27
189_C12H11N3O_22-0-2-3 (-135,) energy =    -703.4053321
N           1.3078585    -1.1084418    -0.9261282
H           1.3409612    -0.1108127    -1.0980820
C           2.5423041    -1.6922099    -0.6215126
N           3.5282260    -0.7514402    -0.3710241
H           3.2854634     0.2289872    -0.3007205
O           2.7195540    -2.8997040    -0.5584538
C           7.6239274    -1.0562510     0.0904387
H           8.7015369    -1.0519836     0.2183717
C           6.9125088    -2.2437048    -0.0950838
H           7.4300841    -3.1991005    -0.1138794
C           5.5309344    -2.2106196    -0.2519601
H           4.9393039    -3.1050762    -0.3851059
C           4.9103897    -0.9518682    -0.2230984
N           5.5746299     0.1983352    -0.0444984
C           6.9013906     0.1341639     0.1099935
H           7.4049867     1.0883899     0.2549634
C          -2.4533563    -2.2335903     0.6340765
H          -3.4257623    -2.5101346     1.0309878
C          -2.2037933    -0.9219706     0.2279459
H          -2.9798161    -0.1654069     0.3078572
C          -0.9551413    -0.5673466    -0.2773859
H          -0.7665748     0.4598462    -0.5851113
C           0.0631007    -1.5256306    -0.3880860
C          -0.1878544    -2.8492504     0.0010735
H           0.5913279    -3.5920912    -0.1057744
C          -1.4391425    -3.1853613     0.5172808
H          -1.6213792    -4.2124594     0.8225238
27
189_C12H11N3O_22-0-2-3 (-120,) energy =    -703.4016467
N           1.2871419    -1.2059647    -1.1733394
H           1.3295308    -0.2126664    -1.3731996
C           2.5360829    -1.7723047    -0.8501440
N           3.4688984    -0.8296516    -0.4578784
H           3.1818558     0.1311357    -0.3181550
O           2.7458480    -2.9745950    -0.8723610
C           7.5382804    -1.0459808     0.2322499
H           8.6054747    -1.0199106     0.4272795
C           6.8822516    -2.2348973    -0.0938316
H           7.4335088    -3.1692081    -0.1580091
C           5.5119650    -2.2304486    -0.3332864
H           4.9609307    -3.1281596    -0.5750829
C           4.8475932    -0.9978863    -0.2406921
N           5.4579654     0.1530244     0.0721380
C           6.7744513     0.1165359     0.3040610
H           7.2344761     1.0699540     0.5579542
C          -2.3268272    -2.1466490     0.8091879
H          -3.2599899    -2.3799680     1.3135039
C          -2.0920827    -0.8626544     0.3160862
H          -2.8409183    -0.0841474     0.4354360
C          -0.8926000    -0.5625880    -0.3267855
H          -0.7155639     0.4442815    -0.7010722
C           0.0884800    -1.5504385    -0.4910067
C          -0.1502932    -2.8473341    -0.0148766
H           0.5984850    -3.6146506    -0.1663472
C          -1.3489528    -3.1286240     0.6394628
H          -1.5209885    -4.1354547     1.0108994
27
189_C12H11N3O_22-0-2-3 (-105,) energy =    -703.3974660
N           1.2451277    -1.2784089    -1.4103818
H           1.2924091    -0.2910563    -1.6427687
C           2.5182837    -1.8226790    -1.0889861
N           3.3851288    -0.8927676    -0.5513183
H           3.0449162     0.0361760    -0.3355331
O           2.7790576    -3.0051939    -1.2267431
C           7.4076786    -1.0331827     0.3899341
H           8.4581832    -0.9888803     0.6585049
C           6.8235256    -2.2066700    -0.0911901
H           7.4160416    -3.1103053    -0.2062841
C           5.4722511    -2.2262915    -0.4216266
H           4.9751511    -3.1145615    -0.7848767
C           4.7538353    -1.0325317    -0.2570192
N           5.2945124     0.1029683     0.2039152
C           6.5937681     0.0897874     0.5199104
H           6.9971295     1.0291621     0.8938513
C          -2.1612278    -2.0470819     0.9765657
H          -3.0408915    -2.2397043     1.5836496
C          -1.9734981    -0.7993609     0.3811486
H          -2.7058956    -0.0089773     0.5226833
C          -0.8419720    -0.5494637    -0.3938211
H          -0.7005171     0.4292433    -0.8490976
C           0.1156254    -1.5538693    -0.5892928
C          -0.0778278    -2.8152725    -0.0084244
H           0.6493182    -3.5996979    -0.1835590
C          -1.2065728    -3.0464101     0.7760037
H          -1.3432366    -4.0260981     1.2263541
27
189_C12H11N3O_22-0-2-3 (-90,) energy =    -703.3994265
N           1.2282795    -0.7335315    -1.4461262
H           0.9028059    -0.7626905    -2.4095839
C           2.5255713    -1.3489954    -1.4424564
N           3.3590738    -0.7550475    -0.5299236
H           2.9912529     0.0289940    -0.0044268
O           2.8501220    -2.2125290    -2.2392135
C           7.2393444    -1.5465324     0.6493650
H           8.2511527    -1.6925995     1.0135057
C           6.7073554    -2.3375607    -0.3707651
H           7.3028079    -3.1239692    -0.8266823
C           5.4066654    -2.1178237    -0.8130198
H           4.9561124    -2.6984895    -1.6057876
C           4.6806976    -1.0915805    -0.1896709
N           5.1723949    -0.3213483     0.7895317
C           6.4267896    -0.5522435     1.1903183
H           6.7935237     0.0939995     1.9858432
C          -1.9023723    -2.0569547     1.0847888
H          -2.7131214    -2.3827631     1.7295397
C          -2.1731736    -1.4870433    -0.1608112
H          -3.2002835    -1.3657986    -0.4947430
C          -1.1347524    -1.0702882    -0.9899197
H          -1.3543887    -0.6233876    -1.9571600
C           0.2001306    -1.2188675    -0.5855381
C           0.4735744    -1.7883825     0.6660025
H           1.4990476    -1.9162506     0.9976198
C          -0.5748492    -2.2033998     1.4873350
H          -0.3439974    -2.6487479     2.4514870
27
189_C12H11N3O_22-0-2-3 (-75,) energy =    -703.4024186
N           1.2129515    -0.9316315    -1.5927023
H           0.8647036    -1.0642425    -2.5382071
C           2.5430827    -1.4317593    -1.5720933
N           3.3035675    -0.8526220    -0.5843792
H           2.8669227    -0.1466727    -0.0033765
O           2.9652044    -2.1898798    -2.4306979
C           7.1717395    -1.5103694     0.7113192
H           8.1737431    -1.6272894     1.1113399
C           6.7399883    -2.2304748    -0.4044794
H           7.4069276    -2.9299056    -0.9014133
C           5.4491826    -2.0504793    -0.8907348
H           5.0752243    -2.5773695    -1.7573538
C           4.6273067    -1.1377611    -0.2113521
N           5.0225743    -0.4367107     0.8596196
C           6.2707832    -0.6257364     1.3000263
H           6.5572227    -0.0371160     2.1698388
C          -1.8325578    -1.9101155     1.1845883
H          -2.6242944    -2.1492773     1.8882217
C          -2.1340172    -1.3401602    -0.0544643
H          -3.1660265    -1.1310984    -0.3233716
C          -1.1197151    -1.0291090    -0.9555959
H          -1.3596126    -0.5727440    -1.9132648
C           0.2211900    -1.2944055    -0.6367322
C           0.5252188    -1.8695477     0.6050482
H           1.5521335    -2.0975569     0.8696279
C          -0.5002085    -2.1693721     1.5033177
H          -0.2463763    -2.6194288     2.4594177
27
189_C12H11N3O_22-0-2-3 (-60,) energy =    -703.4051668
N           1.2131869    -1.1520597    -1.6890332
H           0.8587333    -1.3490556    -2.6195447
C           2.5679831    -1.5367697    -1.6490975
N           3.2577409    -0.9822102    -0.5939085
H           2.7594354    -0.3598827     0.0315573
O           3.0735136    -2.1915095    -2.5489790
C           7.1422048    -1.4284799     0.7427298
H           8.1428216    -1.4957111     1.1573988
C           6.7902776    -2.0940110    -0.4335641
H           7.5204105    -2.6990490    -0.9645104
C           5.4987022    -1.9806761    -0.9369008
H           5.1847937    -2.4681589    -1.8490828
C           4.5925396    -1.1891913    -0.2131144
N           4.9108684    -0.5423789     0.9164867
C           6.1618176    -0.6651278     1.3723722
H           6.3833344    -0.1230605     2.2901651
C          -1.7861508    -1.7651179     1.2345993
H          -2.5676494    -1.9124866     1.9740287
C          -2.0786125    -1.1706651     0.0047147
H          -3.0921989    -0.8497238    -0.2202602
C          -1.0756200    -0.9721354    -0.9396116
H          -1.3031274    -0.4895393    -1.8870293
C           0.2407763    -1.3836741    -0.6773141
C           0.5332807    -1.9904010     0.5524675
H           1.5370711    -2.3390538     0.7690755
C          -0.4779755    -2.1687522     1.4982849
H          -0.2343108    -2.6424709     2.4454758
27
189_C12H11N3O_22-0-2-3 (-45,) energy =    -703.4072574
N           1.2075172    -1.3609724    -1.7445663
H           0.8510877    -1.5820793    -2.6674125
C           2.5800371    -1.6326121    -1.7020546
N           3.2170780    -1.1206167    -0.5912231
H           2.6744094    -0.5862120     0.0771144
O           3.1434837    -2.1819939    -2.6390445
C           7.1222058    -1.3593635     0.7385151
H           8.1239917    -1.3789363     1.1553816
C           6.8255414    -1.9634372    -0.4853785
H           7.6016635    -2.4706767    -1.0523929
C           5.5305141    -1.9145084    -0.9897981
H           5.2572489    -2.3582785    -1.9366162
C           4.5632830    -1.2490263    -0.2191233
N           4.8284485    -0.6626192     0.9566364
C           6.0839157    -0.7213463     1.4128875
H           6.2602349    -0.2313118     2.3690205
C          -1.7496515    -1.6314722     1.2669040
H          -2.5207193    -1.6932422     2.0290995
C          -2.0178964    -1.0241417     0.0378021
H          -3.0011649    -0.6073097    -0.1629439
C          -1.0259945    -0.9321556    -0.9345514
H          -1.2290374    -0.4367048    -1.8806119
C           0.2503086    -1.4685220    -0.7020143
C           0.5147006    -2.0943565     0.5252948
H           1.4829102    -2.5454381     0.7133079
C          -0.4809575    -2.1603998     1.5014731
H          -0.2598283    -2.6476217     2.4472633
27
189_C12H11N3O_22-0-2-3 (-30,) energy =    -703.4085354
N           1.1902063    -1.5456322    -1.7280688
H           0.8324661    -1.7302154    -2.6570293
C           2.5736795    -1.7123048    -1.6980624
N           3.1796685    -1.2725842    -0.5388106
H           2.6124485    -0.8262112     0.1721864
O           3.1699403    -2.1452059    -2.6760967
C           7.1137044    -1.3054274     0.7265009
H           8.1207093    -1.2780704     1.1301789
C           6.8432404    -1.8417910    -0.5345026
H           7.6459977    -2.2471285    -1.1448470
C           5.5402951    -1.8566577    -1.0200701
H           5.2856849    -2.2524365    -1.9928940
C           4.5380170    -1.3219515    -0.1940190
N           4.7777223    -0.8026554     1.0184309
C           6.0411399    -0.7987178     1.4561659
H           6.1952664    -0.3664896     2.4435475
C          -1.7423089    -1.5180038     1.3131870
H          -2.5071530    -1.5048903     2.0840046
C          -1.9752432    -0.9091898     0.0776526
H          -2.9237591    -0.4167256    -0.1187620
C          -0.9901091    -0.9114034    -0.9061962
H          -1.1616616    -0.4149159    -1.8578353
C           0.2409411    -1.5459569    -0.6775555
C           0.4658364    -2.1781282     0.5551273
H           1.3933904    -2.7113472     0.7340607
C          -0.5190494    -2.1469650     1.5436216
H          -0.3287558    -2.6381738     2.4939900
27
189_C12H11N3O_22-0-2-3 (-15,) energy =    -703.4091579
N           1.1779459    -1.7228500    -1.7243903
H           0.8209443    -1.8305996    -2.6647032
C           2.5681467    -1.7782199    -1.7096645
N           3.1540582    -1.4026617    -0.5177524
H           2.5687422    -1.0438758     0.2272304
O           3.1836401    -2.0989346    -2.7190344
C           7.0979885    -1.2382477     0.7066868
H           8.1058882    -1.1663149     1.1026078
C           6.8486300    -1.7112892    -0.5836954
H           7.6694174    -2.0204685    -1.2255682
C           5.5436197    -1.7869168    -1.0578141
H           5.3041894    -2.1381360    -2.0513443
C           4.5174142    -1.3761160    -0.1911389
N           4.7368451    -0.9189837     1.0499771
C           6.0025190    -0.8550165     1.4764022
H           6.1391707    -0.4767512     2.4882385
C          -1.7285456    -1.4085109     1.3228031
H          -2.4851696    -1.3245285     2.0972728
C          -1.9230771    -0.8049481     0.0782128
H          -2.8330909    -0.2455763    -0.1210646
C          -0.9472186    -0.8980006    -0.9109861
H          -1.0879952    -0.4059671    -1.8699796
C           0.2340413    -1.6190883    -0.6772314
C           0.4160733    -2.2492252     0.5640350
H           1.2991777    -2.8543795     0.7410371
C          -0.5557338    -2.1261156     1.5579884
H          -0.3983166    -2.6157129     2.5151220
27
189_C12H11N3O_22-0-2-3 (0,) energy =    -703.4093138
N           1.1777064    -1.9054505    -1.7106535
H           0.8241214    -1.9321826    -2.6581371
C           2.5695009    -1.8467720    -1.7087491
N           3.1449235    -1.5366192    -0.4939394
H           2.5492077    -1.2674254     0.2799429
O           3.1923769    -2.0577888    -2.7421822
C           7.0870125    -1.1637841     0.6908579
H           8.0935391    -1.0445727     1.0788019
C           6.8510036    -1.5716944    -0.6240043
H           7.6812113    -1.7804449    -1.2936927
C           5.5471297    -1.7118524    -1.0864992
H           5.3171902    -2.0180845    -2.0969822
C           4.5084645    -1.4304053    -0.1838340
N           4.7150513    -1.0378233     1.0813356
C           5.9796689    -0.9102663     1.4964181
H           6.1054641    -0.5881451     2.5288978
C          -1.6991993    -1.3087352     1.3229415
H          -2.4460414    -1.1547952     2.0962007
C          -1.8498253    -0.7138544     0.0681799
H          -2.7157045    -0.0912533    -0.1399376
C          -0.8852118    -0.8972749    -0.9199050
H          -0.9913294    -0.4126909    -1.8871994
C           0.2386385    -1.7004077    -0.6731176
C           0.3726740    -2.3236958     0.5775258
H           1.2052317    -2.9960099     0.7598311
C          -0.5843413    -2.1099677     1.5703985
H          -0.4639183    -2.5942663     2.5354966
27
189_C12H11N3O_22-0-2-3 (15,) energy =    -703.4091565
N           1.2627159    -1.3349797     1.6237773
H           0.9503461    -1.2243993     2.5795191
C           2.6510418    -1.3978287     1.5581714
N           3.1805259    -1.3081686     0.2867221
H           2.5602405    -1.1263000    -0.4933498
O           3.3136983    -1.4847732     2.5847525
C           7.0641782    -1.4488605    -1.1198889
H           8.0527008    -1.4748246    -1.5670348
C           6.8763240    -1.6088008     0.2549268
H           7.7272311    -1.7639357     0.9130911
C           5.5945094    -1.5669896     0.7923258
H           5.4024049    -1.6775910     1.8499958
C           4.5275868    -1.3644244    -0.0985210
N           4.6878684    -1.2084012    -1.4204230
C           5.9326232    -1.2499934    -1.9069401
H           6.0210815    -1.1170725    -2.9840102
C          -1.7828701    -1.7164648    -1.2767836
H          -2.5743484    -1.8098698    -2.0144849
C          -1.9243145    -0.8429404    -0.1959449
H          -2.8282326    -0.2495320    -0.0886274
C          -0.9035996    -0.7103852     0.7421068
H          -1.0040097    -0.0109255     1.5681091
C           0.2707778    -1.4703212     0.6257486
C           0.4003272    -2.3687573    -0.4451094
H           1.2784688    -3.0018597    -0.5197437
C          -0.6169767    -2.4729877    -1.3947661
H          -0.4998918    -3.1694091    -2.2205004
27
189_C12H11N3O_22-0-2-3 (30,) energy =    -703.4085354
N           1.2657220    -1.1575126     1.5838276
H           0.9510969    -1.1203731     2.5454139
C           2.6472803    -1.3341006     1.5309956
N           3.1982276    -1.1776089     0.2754444
H           2.5973064    -0.9046491    -0.4932497
O           3.2891597    -1.5323708     2.5547929
C           7.0714581    -1.5234266    -1.1235642
H           8.0591244    -1.5956006    -1.5674890
C           6.8607658    -1.7522343     0.2381341
H           7.6922430    -2.0098192     0.8889288
C           5.5810836    -1.6473715     0.7720632
H           5.3725401    -1.8061198     1.8204726
C           4.5399204    -1.3127162    -0.1093092
N           4.7221579    -1.0891208    -1.4184908
C           5.9645614    -1.1933430    -1.9016289
H           6.0718821    -1.0019545    -2.9680957
C          -1.8007742    -1.8178971    -1.2463907
H          -2.5995854    -1.9792118    -1.9641625
C          -1.9809964    -0.9386631    -0.1759116
H          -2.9222267    -0.4089973    -0.0562390
C          -0.9525913    -0.7186836     0.7364721
H          -1.0836930    -0.0147019     1.5542550
C           0.2701619    -1.3955687     0.6056291
C           0.4426016    -2.2968240    -0.4563165
H           1.3638870    -2.8619843    -0.5486342
C          -0.5859129    -2.4897139    -1.3799198
H          -0.4360592    -3.1883679    -2.1985309
27
189_C12H11N3O_22-0-2-3 (45,) energy =    -703.4072573
N           1.2828119    -0.9741378     1.5563847
H           0.9694099    -0.9739512     2.5204150
C           2.6534038    -1.2556808     1.5161601
N           3.2371789    -1.0178491     0.2895591
H           2.6622517    -0.6495152    -0.4591342
O           3.2612536    -1.5765843     2.5284754
C           7.0796890    -1.5787265    -1.1231553
H           8.0617893    -1.6995788    -1.5688118
C           6.8415011    -1.8818442     0.2193113
H           7.6449436    -2.2484400     0.8527545
C           5.5702494    -1.7106001     0.7564555
H           5.3421463    -1.9219484     1.7915262
C           4.5659176    -1.2361037    -0.1029125
N           4.7748957    -0.9388742    -1.3930985
C           6.0088455    -1.1082997    -1.8793851
H           6.1394456    -0.8535697    -2.9298464
C          -1.8054502    -1.9175457    -1.1748401
H          -2.6097086    -2.1496858    -1.8666367
C          -2.0212262    -1.0410516    -0.1086806
H          -2.9965902    -0.5837776     0.0342545
C          -0.9870582    -0.7321217     0.7704447
H          -1.1498623    -0.0302681     1.5844625
C           0.2802227    -1.3146276     0.6110747
C           0.4923252    -2.2086885    -0.4488912
H           1.4533944    -2.6962585    -0.5708563
C          -0.5459004    -2.4932430    -1.3375629
H          -0.3650591    -3.1871260    -2.1540340
27
189_C12H11N3O_22-0-2-3 (60,) energy =    -703.4051668
N           1.2849055    -0.7837565     1.4538574
H           0.9736979    -0.7583507     2.4196734
C           2.6384878    -1.1746116     1.4430769
N           3.2772106    -0.8827902     0.2583410
H           2.7480797    -0.4192436    -0.4710096
O           3.1873519    -1.6062828     2.4462917
C           7.0998289    -1.6470548    -1.1121723
H           8.0811038    -1.8137607    -1.5446224
C           6.8046079    -2.0206720     0.2007277
H           7.5609863    -2.4905086     0.8237959
C           5.5364267    -1.7870346     0.7217741
H           5.2663876    -2.0486999     1.7351170
C           4.5945656    -1.1794369    -0.1239019
N           4.8584197    -0.8130533    -1.3855842
C           6.0882000    -1.0446583    -1.8565112
H           6.2654098    -0.7306844    -2.8837734
C          -1.8397696    -2.0399031    -1.1109026
H          -2.6529838    -2.3500022    -1.7603135
C          -2.0796373    -1.1756251    -0.0399167
H          -3.0837064    -0.8058770     0.1500988
C          -1.0361989    -0.7695787     0.7868377
H          -1.2233155    -0.0797849     1.6062465
C           0.2691548    -1.2377381     0.5678810
C           0.5091325    -2.1139339    -0.5001687
H           1.5039343    -2.5086544    -0.6752046
C          -0.5427316    -2.5006488    -1.3326661
H          -0.3395093    -3.1818410    -2.1546333
27
189_C12H11N3O_22-0-2-3 (75,) energy =    -703.4024186
N           1.2792042    -0.5915790     1.3092840
H           0.9745400    -0.5001039     2.2745060
C           2.6096083    -1.0901216     1.3450806
N           3.3218962    -0.7591687     0.2170590
H           2.8559330    -0.2043222    -0.4911858
O           3.0738219    -1.6314645     2.3358322
C           7.1311673    -1.7196182    -1.0640391
H           8.1147417    -1.9312851    -1.4708273
C           6.7537634    -2.1598835     0.2062758
H           7.4459679    -2.7290731     0.8209555
C           5.4852401    -1.8653480     0.6952744
H           5.1533658    -2.1755611     1.6761485
C           4.6289536    -1.1299967    -0.1390681
N           4.9720261    -0.6977079    -1.3597712
C           6.2001058    -0.9901976    -1.8002076
H           6.4440907    -0.6201920    -2.7945228
C          -1.8831339    -2.1691541    -1.0266898
H          -2.7044936    -2.5602249    -1.6196291
C          -2.1314522    -1.3265387     0.0592730
H          -3.1513746    -1.0553768     0.3186780
C          -1.0792374    -0.8210709     0.8175247
H          -1.2781356    -0.1543578     1.6535168
C           0.2473039    -1.1601680     0.5086819
C           0.4980928    -2.0084742    -0.5788482
H           1.5132174    -2.2970417    -0.8294374
C          -0.5651646    -2.5022975    -1.3364140
H          -0.3523073    -3.1625859    -2.1729663
27
189_C12H11N3O_22-0-2-3 (90,) energy =    -703.3994265
N           1.2869046    -0.4328200     1.1203383
H           1.0052689    -0.2366690     2.0780648
C           2.5858571    -1.0394771     1.2007415
N           3.3743947    -0.6771301     0.1390779
H           2.9792829    -0.0338482    -0.5363740
O           2.9503575    -1.6971451     2.1601465
C           7.2016762    -1.7408439    -0.9985067
H           8.1968093    -1.9726256    -1.3641259
C           6.7201958    -2.2716847     0.1997369
H           7.3395871    -2.9345901     0.7978784
C           5.4396146    -1.9486043     0.6372285
H           5.0281764    -2.3277945     1.5622068
C           4.6810775    -1.0903700    -0.1732179
N           5.1242560    -0.5700803    -1.3250656
C           6.3605126    -0.8941779    -1.7175942
H           6.6877575    -0.4513717    -2.6566453
C          -1.9476334    -2.2885612    -0.8926064
H          -2.7848919    -2.7502134    -1.4074308
C          -2.1650302    -1.4446433     0.1983529
H          -3.1766815    -1.2439126     0.5410396
C          -1.0925036    -0.8531194     0.8610824
H          -1.2706828    -0.1935127     1.7076552
C           0.2235752    -1.0983998     0.4424096
C           0.4433425    -1.9433198    -0.6545337
H           1.4534968    -2.1499506    -0.9933662
C          -0.6388353    -2.5313009    -1.3096580
H          -0.4493214    -3.1887437    -2.1540926
27
189_C12H11N3O_22-0-2-3 (105,) energy =    -703.3974660
N           1.3049252    -0.9712883     1.2108257
H           1.3575523     0.0427698     1.2062662
C           2.5651036    -1.5820120     0.9670675
N           3.4020966    -0.8063188     0.1905465
H           3.0477573     0.0493929    -0.2186543
O           2.8378727    -2.7020329     1.3626327
C           7.3788810    -1.1823540    -0.8726364
H           8.4159948    -1.2070429    -1.1911305
C           6.8229975    -2.2096221    -0.1074557
H           7.4247192    -3.0653605     0.1866900
C           5.4880800    -2.1449885     0.2789820
H           5.0123923    -2.9224966     0.8597445
C           4.7568714    -1.0177568    -0.1247035
N           5.2704273    -0.0225426    -0.8595244
C           6.5541974    -0.1154680    -1.2220035
H           6.9354994     0.7097958    -1.8207570
C          -2.2014029    -2.2525249    -0.7780750
H          -3.1064941    -2.5755163    -1.2839889
C          -1.9934720    -0.9019857    -0.4963304
H          -2.7355422    -0.1617833    -0.7836917
C          -0.8295159    -0.4858217     0.1481784
H          -0.6727370     0.5708462     0.3580043
C           0.1410467    -1.4229960     0.5273150
C          -0.0718765    -2.7834520     0.2631305
H           0.6664281    -3.5100621     0.5820044
C          -1.2335764    -3.1835664    -0.3950329
H          -1.3853399    -4.2400763    -0.6000587
27
189_C12H11N3O_22-0-2-3 (120,) energy =    -703.4016467
N           1.3358588    -0.9558477     0.9618133
H           1.3821068     0.0565010     0.9244836
C           2.5718798    -1.5883274     0.7224995
N           3.4812517    -0.7669763     0.0813787
H           3.1832771     0.1370141    -0.2636445
O           2.7885949    -2.7540261     1.0126333
C           7.5165109    -1.1590530    -0.7223020
H           8.5737000    -1.1845663    -0.9658592
C           6.8819253    -2.2367923    -0.1010090
H           7.4402954    -3.1339253     0.1525952
C           5.5237976    -2.1696736     0.1922964
H           4.9888120    -2.9841571     0.6596256
C           4.8496218    -0.9883309    -0.1527972
N           5.4393880     0.0557446    -0.7503715
C           6.7442734    -0.0405130    -1.0265298
H           7.1875123     0.8258643    -1.5144030
C          -2.3587959    -2.3097987    -0.5849422
H          -3.3124987    -2.6483318    -0.9791647
C          -2.1086801    -0.9478793    -0.4131454
H          -2.8661088    -0.2140130    -0.6754700
C          -0.8830376    -0.5138190     0.0883272
H          -0.6945053     0.5513321     0.2113187
C           0.1094876    -1.4422398     0.4322207
C          -0.1438248    -2.8127640     0.2800816
H           0.6149398    -3.5283090     0.5710412
C          -1.3692569    -3.2312159    -0.2369147
H          -1.5526714    -4.2956965    -0.3573722
27
189_C12H11N3O_22-0-2-3 (135,) energy =    -703.4053321
N           1.3449171    -0.9182668     0.6981096
H           1.3805862     0.0918958     0.6330841
C           2.5673895    -1.5633191     0.4815059
N           3.5362091    -0.7113022    -0.0237529
H           3.2854735     0.2275898    -0.3078796
O           2.7478402    -2.7536094     0.6914603
C           7.6085098    -1.1366928    -0.5859841
H           8.6792317    -1.1679313    -0.7597847
C           6.9122892    -2.2451916    -0.0990670
H           7.4351168    -3.1731166     0.1168599
C           5.5390236    -2.1692684     0.1078954
H           4.9586002    -3.0054776     0.4707597
C           4.9113260    -0.9479821    -0.1833421
N           5.5609174     0.1261345    -0.6527932
C           6.8796924     0.0208112    -0.8477800
H           7.3713247     0.9129130    -1.2319990
C          -2.4768747    -2.3531813    -0.3889962
H          -3.4647373    -2.7086754    -0.6670960
C          -2.2159981    -0.9845784    -0.3087473
H          -2.9986725    -0.2627612    -0.5264344
C          -0.9476997    -0.5295451     0.0442533
H          -0.7507622     0.5399275     0.0973577
C           0.0793712    -1.4418004     0.3276111
C          -0.1820787    -2.8181447     0.2666939
H           0.6049188    -3.5203663     0.5072571
C          -1.4535928    -3.2576810    -0.1010364
H          -1.6441359    -4.3265153    -0.1520424
27
189_C12H11N3O_22-0-2-3 (150,) energy =    -703.4080208
N           1.3421422    -0.8864842     0.4261593
H           1.3647906     0.1219454     0.3465143
C           2.5606765    -1.5382868     0.2620939
N           3.5778875    -0.6681015    -0.1037402
H           3.3667801     0.2986813    -0.3185188
O           2.7168138    -2.7418272     0.4133790
C           7.6676318    -1.1428506    -0.4593856
H           8.7461202    -1.1850310    -0.5720714
C           6.9225070    -2.2708740    -0.1084947
H           7.4138815    -3.2255200     0.0597580
C           5.5411478    -2.1801851     0.0242972
H           4.9251838    -3.0289921     0.2844255
C           4.9539076    -0.9248689    -0.2010884
N           5.6514146     0.1686635    -0.5401490
C           6.9774031     0.0490338    -0.6649645
H           7.5077217     0.9582837    -0.9430063
C          -2.5541337    -2.3834228    -0.2081922
H          -3.5625593    -2.7528259    -0.3701959
C          -2.2918994    -1.0127015    -0.2273115
H          -3.0946373    -0.3025438    -0.4067940
C          -0.9976795    -0.5418853    -0.0223764
H          -0.8012598     0.5288101    -0.0453464
C           0.0569048    -1.4383433     0.2097280
C          -0.2032619    -2.8163237     0.2444920
H           0.6055670    -3.5069033     0.4382932
C          -1.5037337    -3.2715173     0.0267264
H          -1.6936249    -4.3414215     0.0503170
27
189_C12H11N3O_22-0-2-3 (165,) energy =    -703.4095542
N           1.3382664    -0.8670889     0.1512791
H           1.3520948     0.1397165     0.0600431
C           2.5592251    -1.5212359     0.0802624
N           3.6080803    -0.6424493    -0.1580468
H           3.4233159     0.3398959    -0.3206996
O           2.7016340    -2.7294695     0.2106188
C           7.7032279    -1.1610863    -0.3484933
H           8.7852252    -1.2135219    -0.4129552
C           6.9272900    -2.2957600    -0.1009100
H           7.3975299    -3.2663298     0.0333158
C           5.5425969    -2.1911430    -0.0264952
H           4.9043341    -3.0432532     0.1576558
C           4.9825998    -0.9158054    -0.2055307
N           5.7102836     0.1847850    -0.4448188
C           7.0390284     0.0517099    -0.5131566
H           7.5938753     0.9675898    -0.7097369
C          -2.5905379    -2.3953686    -0.0388369
H          -3.6083956    -2.7710534    -0.0881010
C          -2.3369219    -1.0260852    -0.1335016
H          -3.1559650    -0.3229326    -0.2586537
C          -1.0311337    -0.5479801    -0.0719541
H          -0.8429028     0.5215607    -0.1507871
C           0.0462882    -1.4340935     0.0884008
C          -0.2037489    -2.8108836     0.1924715
H           0.6225230    -3.4946677     0.3240266
C          -1.5181673    -3.2732105     0.1226712
H          -1.6998998    -4.3419218     0.2013099
27
189_C12H11N3O_22-0-2-3 (180,) energy =    -703.4100467
N           1.3337788    -0.8808401    -0.1208944
H           1.3446527     0.1236923    -0.2323419
C           2.5576023    -1.5283310    -0.0744275
N           3.6196190    -0.6407060    -0.1954175
H           3.4453910     0.3497696    -0.3150170
O           2.6949563    -2.7370410     0.0588232
C           7.7174642    -1.1690119    -0.2503091
H           8.8010109    -1.2233592    -0.2748800
C           6.9292764    -2.3105178    -0.0869874
H           7.3913585    -3.2883568     0.0201194
C           5.5430685    -2.2031870    -0.0600759
H           4.8957488    -3.0593039     0.0638156
C           4.9937745    -0.9185572    -0.2027200
N           5.7335370     0.1888304    -0.3604352
C           7.0636154     0.0533781    -0.3819477
H           7.6282695     0.9751762    -0.5116812
C          -2.6008469    -2.3836930     0.1287383
H          -3.6206800    -2.7519843     0.1911088
C          -2.3501342    -1.0200105    -0.0319949
H          -3.1735106    -0.3137168    -0.0963046
C          -1.0421364    -0.5512955    -0.1116705
H          -0.8568558     0.5143110    -0.2372408
C           0.0416518    -1.4410459    -0.0315304
C          -0.2050557    -2.8130380     0.1301489
H           0.6260055    -3.5005540     0.1921212
C          -1.5225581    -3.2654335     0.2079337
H          -1.7013584    -4.3302112     0.3331121
