27
189_C12H11N3O_2-3-12-10 (-165,) energy =    -703.3962076
N           1.3826827    -1.1627007     0.3551941
H           1.4806525    -0.3339750     0.9258071
C           2.5530089    -1.7056503    -0.1634907
N           3.6716418    -1.2063016     0.5303337
H           3.5174654    -0.8878641     1.4766826
O           2.6043056    -2.5189559    -1.0627586
C           7.6333122    -1.2051300    -0.6676314
H           8.6560647    -1.2054957    -1.0302662
C           7.3323157    -0.9630943     0.6751957
H           8.1217296    -0.7681169     1.3961155
C           6.0066670    -0.9806616     1.0861024
H           5.7414608    -0.8107766     2.1268004
C           5.0119862    -1.2379485     0.1225286
N           5.2835593    -1.4486438    -1.1655304
C           6.5694519    -1.4419286    -1.5348946
H           6.7511199    -1.6271507    -2.5924308
C          -2.6545162    -2.0663800    -0.4719935
H          -3.6990276    -2.2879033    -0.6710722
C          -2.3036418    -1.0252075     0.3889044
H          -3.0733638    -0.4268812     0.8691230
C          -0.9639733    -0.7441639     0.6416743
H          -0.6992444     0.0671661     1.3179449
C           0.0511863    -1.5001980     0.0333484
C          -0.2962352    -2.5461668    -0.8355030
H           0.4822256    -3.1207411    -1.3168478
C          -1.6438091    -2.8159086    -1.0750123
H          -1.9008923    -3.6274688    -1.7507856
27
189_C12H11N3O_2-3-12-10 (-150,) energy =    -703.3968266
N           1.3702781    -1.0759389     0.3348783
H           1.4479510    -0.2073080     0.8464393
C           2.5565836    -1.6157546    -0.1432483
N           3.6585749    -1.0287632     0.5132531
H           3.5125621    -0.7566475     1.4759281
O           2.6410342    -2.4853069    -0.9861075
C           7.6183266    -1.2616498    -0.6679129
H           8.6398683    -1.3130008    -1.0305110
C           7.3305279    -1.1465042     0.6937316
H           8.1286324    -1.1083463     1.4302603
C           6.0040298    -1.0949375     1.1028269
H           5.7455722    -1.0293380     2.1567326
C           5.0004114    -1.1443993     0.1187409
N           5.2613846    -1.2316044    -1.1866437
C           6.5446065    -1.3047802    -1.5555253
H           6.7186566    -1.3884375    -2.6271316
C          -2.6362302    -2.1363147    -0.4522914
H          -3.6733933    -2.3971349    -0.6419169
C          -2.3187259    -1.0344705     0.3435873
H          -3.1067087    -0.4277091     0.7817789
C          -0.9885456    -0.7027666     0.5847436
H          -0.7499226     0.1560416     1.2100636
C           0.0498710    -1.4678959     0.0295643
C          -0.2640737    -2.5749858    -0.7737193
H           0.5325358    -3.1572052    -1.2146480
C          -1.6024524    -2.8950488    -1.0024863
H          -1.8338620    -3.7536511    -1.6275084
27
189_C12H11N3O_2-3-12-10 (-135,) energy =    -703.3968438
N           1.3587427    -0.9818995     0.3005293
H           1.4086061    -0.0851682     0.7650810
C           2.5624333    -1.5037635    -0.1479266
N           3.6456252    -0.8300771     0.4598008
H           3.5047969    -0.5687162     1.4273218
O           2.6821800    -2.4181371    -0.9383280
C           7.6005526    -1.3489207    -0.6552836
H           8.6214577    -1.4674074    -1.0039737
C           7.2903213    -1.3379895     0.7054203
H           8.0683365    -1.4548210     1.4550126
C           5.9630070    -1.1957039     1.0941154
H           5.6815791    -1.2133574     2.1438150
C           4.9895034    -1.0400064     0.0942301
N           5.2739505    -1.0314971    -1.2094784
C           6.5519350    -1.2015116    -1.5626789
H           6.7460769    -1.2040519    -2.6340384
C          -2.6080785    -2.2239384    -0.4187614
H          -3.6353191    -2.5312923    -0.5920295
C          -2.3290636    -1.0786291     0.3287550
H          -3.1378639    -0.4840967     0.7452256
C          -1.0113972    -0.6876638     0.5491037
H          -0.8025146     0.2046824     1.1369087
C           0.0527710    -1.4360401     0.0206285
C          -0.2223027    -2.5867314    -0.7340911
H           0.5942455    -3.1568220    -1.1540074
C          -1.5485784    -2.9658990    -0.9421983
H          -1.7499628    -3.8579037    -1.5297122
27
189_C12H11N3O_2-3-12-10 (-120,) energy =    -703.3960744
N           1.3563888    -0.8917999     0.2654272
H           1.3794693     0.0291681     0.6823548
C           2.5747226    -1.3942331    -0.1614634
N           3.6400739    -0.6458372     0.3897021
H           3.5040845    -0.3683732     1.3545622
O           2.7255638    -2.3449424    -0.9036451
C           7.5775777    -1.4216256    -0.6528162
H           8.5954454    -1.6017447    -0.9838766
C           7.2190694    -1.5307185     0.6908682
H           7.9525519    -1.8087985     1.4428314
C           5.8956434    -1.3019503     1.0549650
H           5.5701933    -1.4110352     2.0859867
C           4.9846742    -0.9348959     0.0545988
N           5.3158850    -0.8184226    -1.2327335
C           6.5838195    -1.0754926    -1.5687824
H           6.8180611    -0.9852671    -2.6282150
C          -2.5686205    -2.3017538    -0.3690417
H          -3.5853550    -2.6522792    -0.5210431
C          -2.3261423    -1.1111520     0.3180007
H          -3.1533330    -0.5240257     0.7080279
C          -1.0218029    -0.6649566     0.5113119
H          -0.8413831     0.2626861     1.0519516
C           0.0653726    -1.4026476     0.0157773
C          -0.1730114    -2.5987934    -0.6782580
H           0.6612870    -3.1612102    -1.0729855
C          -1.4862671    -3.0328865    -0.8599546
H          -1.6591983    -3.9598661    -1.4005321
27
189_C12H11N3O_2-3-12-10 (-105,) energy =    -703.3958869
N           1.3506418    -0.8748434     0.3506791
H           1.3401993     0.0000792     0.8574528
C           2.5881501    -1.4672747     0.1702554
N           3.6401161    -0.6289817     0.6024254
H           3.4512092     0.3539602     0.4203215
O           2.7740830    -2.5925827    -0.2585775
C           7.4932872    -1.4597057    -0.7317285
H           8.4885936    -1.6401883    -1.1260738
C           7.1495641    -1.8281032     0.5684985
H           7.8761731    -2.3020399     1.2226152
C           5.8583644    -1.5648604     1.0214768
H           5.5369696    -1.8199949     2.0251581
C           4.9587843    -0.9666729     0.1384504
N           5.2797981    -0.5839472    -1.0985722
C           6.5256059    -0.8345142    -1.5187468
H           6.7592469    -0.5141673    -2.5324866
C          -2.5320634    -2.3266120    -0.4326979
H          -3.5386001    -2.6840726    -0.6298278
C          -2.3288240    -1.0970046     0.1957559
H          -3.1764762    -0.4854793     0.4934816
C          -1.0375395    -0.6417876     0.4471338
H          -0.8882686     0.3196168     0.9359154
C           0.0757777    -1.4117561     0.0739351
C          -0.1229973    -2.6485844    -0.5585989
H           0.7325909    -3.2455073    -0.8408459
C          -1.4237660    -3.0892562    -0.8030954
H          -1.5658955    -4.0493213    -1.2925491
27
189_C12H11N3O_2-3-12-10 (-90,) energy =    -703.3987949
N           1.3478008    -0.8489431     0.3004098
H           1.3383771     0.0703705     0.7215034
C           2.5838300    -1.4549700     0.1741327
N           3.6367630    -0.5782424     0.5278593
H           3.4479232     0.3792437     0.2393609
O           2.7702015    -2.6143625    -0.1525814
C           7.5147955    -1.4301096    -0.6946543
H           8.5245843    -1.6031352    -1.0536037
C           7.0610846    -1.9947160     0.4987152
H           7.7155073    -2.6174134     1.1023834
C           5.7610880    -1.7286105     0.9181452
H           5.3619616    -2.1259419     1.8445466
C           4.9543058    -0.9370828     0.0971589
N           5.3805108    -0.3668977    -1.0309520
C           6.6402904    -0.6162764    -1.4126304
H           6.9603709    -0.1367393    -2.3358540
C          -2.5361614    -2.3575836    -0.3587925
H          -3.5431545    -2.7290912    -0.5250997
C          -2.3313327    -1.0739838     0.1497595
H          -3.1780198    -0.4341630     0.3838328
C          -1.0395469    -0.6005633     0.3617326
H          -0.8888151     0.4028259     0.7565615
C           0.0722364    -1.4064885     0.0689856
C          -0.1278757    -2.6976336    -0.4427479
H           0.7265777    -3.3215653    -0.6632072
C          -1.4291997    -3.1557113    -0.6497213
H          -1.5727053    -4.1577669    -1.0456085
27
189_C12H11N3O_2-3-12-10 (-75,) energy =    -703.4022290
N           1.3452781    -0.8417133     0.2378404
H           1.3400108     0.1153076     0.5644229
C           2.5772537    -1.4630366     0.1673652
N           3.6334153    -0.5640349     0.4431704
H           3.4483865     0.3784207     0.1071476
O           2.7570874    -2.6483247    -0.0549154
C           7.5500249    -1.4025432    -0.6322969
H           8.5771995    -1.5608964    -0.9454735
C           6.9853406    -2.1387564     0.4123071
H           7.5693279    -2.8858389     0.9426883
C           5.6697503    -1.8867437     0.7845640
H           5.1897673    -2.4198912     1.5966999
C           4.9550822    -0.9282906     0.0578111
N           5.4851777    -0.1992479    -0.9261827
C           6.7615890    -0.4394201    -1.2569349
H           7.1654220     0.1732389    -2.0608397
C          -2.5471375    -2.3828707    -0.2805469
H          -3.5562677    -2.7624577    -0.4118381
C          -2.3347727    -1.0567894     0.0998672
H          -3.1776023    -0.3917234     0.2680633
C          -1.0402884    -0.5731061     0.2671870
H          -0.8835218     0.4631817     0.5619830
C           0.0663815    -1.4112364     0.0576206
C          -0.1411170    -2.7450227    -0.3253552
H           0.7093872    -3.3930183    -0.4824871
C          -1.4451339    -3.2128666    -0.4892356
H          -1.5946447    -4.2479585    -0.7852239
27
189_C12H11N3O_2-3-12-10 (-60,) energy =    -703.4054144
N           1.3488813    -0.8296009     0.1607128
H           1.3443736     0.1564685     0.3844088
C           2.5806826    -1.4555541     0.1384819
N           3.6353304    -0.5413622     0.3309099
H           3.4504427     0.3996197    -0.0065587
O           2.7553294    -2.6570164     0.0151691
C           7.5983736    -1.3116379    -0.5908970
H           8.6419828    -1.4445675    -0.8578317
C           6.9500133    -2.1909902     0.2807778
H           7.4845454    -3.0294694     0.7187751
C           5.6158685    -1.9734639     0.6035285
H           5.0735148    -2.6238604     1.2778153
C           4.9678834    -0.8886038    -0.0017085
N           5.5757783    -0.0265366    -0.8212873
C           6.8679485    -0.2426083    -1.1024363
H           7.3328054     0.4793215    -1.7713988
C          -2.5487485    -2.4048301    -0.1951857
H          -3.5589978    -2.7931520    -0.2860197
C          -2.3322326    -1.0493246     0.0577195
H          -3.1731296    -0.3695710     0.1661237
C          -1.0361390    -0.5550637     0.1733604
H          -0.8769093     0.5040354     0.3691720
C           0.0683893    -1.4113765     0.0387757
C          -0.1433766    -2.7747446    -0.2163319
H           0.7050479    -3.4364149    -0.3168938
C          -1.4490718    -3.2529548    -0.3295623
H          -1.6016910    -4.3109202    -0.5264429
27
189_C12H11N3O_2-3-12-10 (-45,) energy =    -703.4077310
N           1.3435203    -0.8350570     0.0802680
H           1.3430023     0.1648164     0.2304626
C           2.5721037    -1.4701405     0.0863889
N           3.6286431    -0.5532084     0.1878331
H           3.4455073     0.3883467    -0.1453136
O           2.7337409    -2.6801860     0.0486621
C           7.6453490    -1.2649279    -0.4997788
H           8.7057887    -1.3772195    -0.7015408
C           6.9270224    -2.2388355     0.1991811
H           7.4221527    -3.1348790     0.5635752
C           5.5717144    -2.0523854     0.4443378
H           4.9776882    -2.7807085     0.9792827
C           4.9766866    -0.8859858    -0.0588373
N           5.6502504     0.0638572    -0.7172362
C           6.9582738    -0.1317290    -0.9261117
H           7.4735966     0.6621387    -1.4638923
C          -2.5660536    -2.4093077    -0.1043616
H          -3.5795833    -2.7967046    -0.1522202
C          -2.3392460    -1.0404939     0.0479863
H          -3.1749497    -0.3496114     0.1200136
C          -1.0392421    -0.5468935     0.1088979
H          -0.8716106     0.5224719     0.2262318
C           0.0590266    -1.4171602     0.0193945
C          -0.1633294    -2.7939528    -0.1347830
H           0.6801529    -3.4661334    -0.2004824
C          -1.4728315    -3.2715044    -0.1942107
H          -1.6334877    -4.3399037    -0.3128300
27
189_C12H11N3O_2-3-12-10 (-30,) energy =    -703.4091197
N           1.3381643    -0.8495016     0.0017472
H           1.3453289     0.1593606     0.0661901
C           2.5650214    -1.4897770     0.0357287
N           3.6235697    -0.5802277     0.0497356
H           3.4414960     0.3739325    -0.2416070
O           2.7151374    -2.7024225     0.0749584
C           7.6835580    -1.2078667    -0.4166935
H           8.7562703    -1.2927274    -0.5573540
C           6.9282555    -2.2594620     0.1082233
H           7.4061762    -3.1930636     0.3928406
C           5.5564566    -2.1112778     0.2788121
H           4.9344832    -2.9010144     0.6756515
C           4.9852580    -0.8899612    -0.1119461
N           5.6939799     0.1323745    -0.6088363
C           7.0137694    -0.0343592    -0.7523929
H           7.5548782     0.8186098    -1.1584338
C          -2.5848386    -2.4032797    -0.0225279
H          -3.6013374    -2.7857485    -0.0303095
C          -2.3462946    -1.0289812     0.0288190
H          -3.1762042    -0.3281994     0.0614366
C          -1.0421922    -0.5427419     0.0386600
H          -0.8665389     0.5310909     0.0777456
C           0.0494566    -1.4252800    -0.0020618
C          -0.1849092    -2.8078183    -0.0546397
H           0.6523622    -3.4901448    -0.0829501
C          -1.4985152    -3.2777026    -0.0637186
H          -1.6679567    -4.3505645    -0.1037246
27
189_C12H11N3O_2-3-12-10 (-15,) energy =    -703.4098332
N           1.3295046    -0.8687959    -0.0651340
H           1.3377332     0.1414098    -0.0987426
C           2.5551930    -1.5122507    -0.0213338
N           3.6158315    -0.6141030    -0.0802063
H           3.4378669     0.3613010    -0.2884866
O           2.6971772    -2.7239320     0.0709485
C           7.7023327    -1.1740962    -0.3427765
H           8.7824918    -1.2377601    -0.4255498
C           6.9258538    -2.2849761    -0.0050131
H           7.3938785    -3.2471364     0.1855860
C           5.5440421    -2.1651375     0.0942935
H           4.9061253    -2.9991942     0.3488382
C           4.9862198    -0.9028106    -0.1652473
N           5.7148508     0.1756429    -0.4869384
C           7.0416253     0.0303658    -0.5701245
H           7.5975203     0.9287452    -0.8331994
C          -2.6001140    -2.4005491     0.0481781
H          -3.6186912    -2.7764905     0.0756503
C          -2.3544796    -1.0279927    -0.0156583
H          -3.1805522    -0.3223002    -0.0384559
C          -1.0480199    -0.5495245    -0.0507665
H          -0.8664689     0.5228975    -0.1009842
C           0.0390281    -1.4383398    -0.0221692
C          -0.2024496    -2.8192674     0.0417219
H           0.6310816    -3.5062283     0.0653562
C          -1.5184344    -3.2812568     0.0760494
H          -1.6933698    -4.3528403     0.1258145
27
189_C12H11N3O_2-3-12-10 (0,) energy =    -703.4100476
N           1.3223022    -0.8776228    -0.1193374
H           1.3287742     0.1261092    -0.2380655
C           2.5489654    -1.5199791    -0.0777837
N           3.6068042    -0.6285920    -0.2078847
H           3.4287635     0.3621992    -0.3189109
O           2.6919170    -2.7277715     0.0576840
C           7.7070989    -1.1385040    -0.2496044
H           8.7909461    -1.1881577    -0.2703692
C           6.9233192    -2.2845069    -0.0969547
H           7.3889547    -3.2611948     0.0051648
C           5.5365881    -2.1832336    -0.0747678
H           4.8927553    -3.0430363     0.0414699
C           4.9822809    -0.8999844    -0.2104519
N           5.7177350     0.2116976    -0.3576226
C           7.0484229     0.0819189    -0.3753801
H           7.6095366     1.0070071    -0.4966834
C          -2.6052572    -2.3976544     0.1399745
H          -3.6232020    -2.7706897     0.2049643
C          -2.3611885    -1.0341645    -0.0320287
H          -3.1880070    -0.3325189    -0.1026546
C          -1.0554405    -0.5597386    -0.1151264
H          -0.8755639     0.5056884    -0.2496782
C           0.0327466    -1.4433498    -0.0270046
C          -0.2072112    -2.8151240     0.1463030
H           0.6269874    -3.4982532     0.2143472
C          -1.5225498    -3.2732029     0.2271203
H          -1.6961679    -4.3377423     0.3612000
27
189_C12H11N3O_2-3-12-10 (15,) energy =    -703.4098327
N           1.3258277    -0.8856579    -0.2062450
H           1.3298791     0.1035488    -0.4140096
C           2.5518894    -1.5275384    -0.1514154
N           3.6092048    -0.6461685    -0.3524609
H           3.4354856     0.3518369    -0.3693507
O           2.6962879    -2.7275502     0.0382402
C           7.7064364    -1.1507544    -0.1517157
H           8.7895733    -1.1989629    -0.1054674
C           6.9215713    -2.3057157    -0.1847459
H           7.3857458    -3.2882222    -0.1660207
C           5.5360339    -2.2051592    -0.2464803
H           4.8918770    -3.0722853    -0.2695321
C           4.9835940    -0.9142370    -0.2644598
N           5.7201278     0.2056992    -0.2372377
C           7.0500750     0.0769262    -0.1825380
H           7.6123690     1.0089826    -0.1623172
C          -2.5962230    -2.3797845     0.2247588
H          -3.6128928    -2.7460957     0.3333132
C          -2.3555472    -1.0320716    -0.0474066
H          -3.1835970    -0.3363407    -0.1532830
C          -1.0515311    -0.5658350    -0.1858314
H          -0.8737783     0.4873348    -0.3975096
C           0.0379554    -1.4423418    -0.0545444
C          -0.1985188    -2.7982462     0.2192495
H           0.6368387    -3.4760244     0.3194783
C          -1.5121034    -3.2481966     0.3551458
H          -1.6831954    -4.3004637     0.5668829
27
189_C12H11N3O_2-3-12-10 (30,) energy =    -703.4091201
N           1.3223231    -0.8828415    -0.2716488
H           1.3162845     0.0842287    -0.5661318
C           2.5517697    -1.5157011    -0.2082555
N           3.6011963    -0.6386533    -0.4866720
H           3.4272073     0.3585666    -0.4249958
O           2.7098525    -2.7035602     0.0342073
C           7.6828763    -1.1447139    -0.0636275
H           8.7614035    -1.1951886     0.0456266
C           6.9145707    -2.2900147    -0.2866589
H           7.3878827    -3.2655520    -0.3596407
C           5.5353501    -2.1845614    -0.4268409
H           4.9035835    -3.0451324    -0.5948794
C           4.9711282    -0.9040460    -0.3156658
N           5.6918976     0.2064398    -0.1109997
C           7.0180259     0.0764071     0.0095903
H           7.5688140     1.0008683     0.1745963
C          -2.5812857    -2.3750364     0.3036149
H          -3.5935593    -2.7407781     0.4489461
C          -2.3561204    -1.0502180    -0.0739348
H          -3.1917352    -0.3723130    -0.2259203
C          -1.0578483    -0.5841620    -0.2594215
H          -0.8913641     0.4510525    -0.5528948
C           0.0406078    -1.4383765    -0.0705445
C          -0.1800576    -2.7709826     0.3097287
H           0.6627726    -3.4316250     0.4532618
C          -1.4879938    -3.2212131     0.4913263
H          -1.6472937    -4.2554571     0.7851506
27
189_C12H11N3O_2-3-12-10 (45,) energy =    -703.4077315
N           1.3229460    -0.8835836    -0.3491079
H           1.3080043     0.0527616    -0.7303027
C           2.5563435    -1.5032907    -0.2629172
N           3.5980038    -0.6369002    -0.6257073
H           3.4204858     0.3567345    -0.5150945
O           2.7316341    -2.6706185     0.0506998
C           7.6487430    -1.1695611     0.0236817
H           8.7182834    -1.2318625     0.1970264
C           6.9097416    -2.2801364    -0.3928768
H           7.3971782    -3.2370437    -0.5589128
C           5.5429320    -2.1557914    -0.6121805
H           4.9330083    -2.9892072    -0.9329460
C           4.9591102    -0.9034143    -0.3703693
N           5.6518910     0.1742209     0.0145452
C           6.9699385     0.0325375     0.2029602
H           7.5007387     0.9303422     0.5147213
C          -2.5598937    -2.3656180     0.3806643
H          -3.5660636    -2.7305565     0.5652543
C          -2.3536174    -1.0714913    -0.0998111
H          -3.1987003    -0.4164015    -0.2937265
C          -1.0625692    -0.6074877    -0.3350032
H          -0.9120905     0.4041416    -0.7083083
C           0.0477065    -1.4327849    -0.0941281
C          -0.1541347    -2.7342491     0.3898166
H           0.6981036    -3.3727999     0.5728747
C          -1.4549066    -3.1829856     0.6202187
H          -1.5993102    -4.1932366     0.9942153
27
189_C12H11N3O_2-3-12-10 (60,) energy =    -703.4054144
N           1.3227221    -0.9034105    -0.4266815
H           1.2997983    -0.0039012    -0.8880471
C           2.5593210    -1.5094910    -0.3101223
N           3.5963038    -0.6670720    -0.7577056
H           3.4182856     0.3260335    -0.6330359
O           2.7496359    -2.6478345     0.0860883
C           7.6063162    -1.2237864     0.1104034
H           8.6632769    -1.2974899     0.3458081
C           6.9206995    -2.2755023    -0.5039397
H           7.4384268    -3.1938535    -0.7670241
C           5.5701785    -2.1314445    -0.7982353
H           4.9985831    -2.9157362    -1.2779348
C           4.9460204    -0.9345463    -0.4225619
N           5.5888747     0.0887945     0.1467382
C           6.8952820    -0.0632600     0.4030075
H           7.3885199     0.7899642     0.8651193
C          -2.5429615    -2.3364862     0.4675635
H          -3.5454038    -2.6884351     0.6931332
C          -2.3483544    -1.0831709    -0.1151917
H          -3.1984476    -0.4477152    -0.3485665
C          -1.0623700    -0.6348399    -0.4028784
H          -0.9196708     0.3449627    -0.8556476
C           0.0535474    -1.4360227    -0.1128630
C          -0.1361293    -2.6964737     0.4736637
H           0.7209743    -3.3165496     0.6941304
C          -1.4319123    -3.1297246     0.7557476
H          -1.5675897    -4.1081239     1.2092688
27
189_C12H11N3O_2-3-12-10 (75,) energy =    -703.4022292
N           1.3190817    -0.9261777    -0.4995617
H           1.2893067    -0.0745170    -1.0439659
C           2.5595476    -1.5134751    -0.3399367
N           3.5924273    -0.7044106    -0.8663877
H           3.4124033     0.2906087    -0.7533494
O           2.7616090    -2.6128919     0.1471705
C           7.5634172    -1.2695592     0.1890664
H           8.6055265    -1.3500676     0.4819892
C           6.9590294    -2.2287385    -0.6274863
H           7.5265148    -3.0787666    -0.9960945
C           5.6250617    -2.0702346    -0.9857987
H           5.1138811    -2.7779912    -1.6276825
C           4.9341566    -0.9685747    -0.4694456
N           5.5011283    -0.0302947     0.2915147
C           6.7938332    -0.1873907     0.6085612
H           7.2275439     0.5958143     1.2275566
C          -2.5300838    -2.2996131     0.5460612
H          -3.5282951    -2.6370505     0.8094576
C          -2.3489376    -1.1018281    -0.1473252
H          -3.2054345    -0.4955932    -0.4299267
C          -1.0683603    -0.6718889    -0.4833463
H          -0.9359832     0.2647967    -1.0222957
C           0.0554894    -1.4363705    -0.1316347
C          -0.1206960    -2.6410596     0.5658034
H           0.7428378    -3.2333693     0.8330302
C          -1.4110957    -3.0564439     0.8952361
H          -1.5362642    -3.9916517     1.4347751
27
189_C12H11N3O_2-3-12-10 (90,) energy =    -703.3987947
N           1.3270622    -0.9428826    -0.5554120
H           1.2907090    -0.1487520    -1.1803773
C           2.5729073    -1.5043443    -0.3465121
N           3.6012096    -0.7374182    -0.9439546
H           3.4167121     0.2613831    -0.8804387
O           2.7840652    -2.5544492     0.2351721
C           7.5370806    -1.2835546     0.2683216
H           8.5633234    -1.3688185     0.6118431
C           7.0361046    -2.1128238    -0.7367191
H           7.6687449    -2.8613489    -1.2056704
C           5.7164610    -1.9509405    -1.1478566
H           5.2803263    -2.5548075    -1.9355885
C           4.9396991    -0.9868773    -0.5008121
N           5.4103040    -0.1674858     0.4407451
C           6.6879504    -0.3219421     0.8131635
H           7.0442830     0.3612232     1.5819710
C          -2.5101670    -2.2475928     0.6148257
H          -3.5054045    -2.5678747     0.9091637
C          -2.3396868    -1.1207446    -0.1909979
H          -3.2017001    -0.5531086    -0.5312365
C          -1.0628685    -0.7126782    -0.5664924
H          -0.9389102     0.1688176    -1.1933882
C           0.0680795    -1.4282404    -0.1419891
C          -0.0974717    -2.5616569     0.6685230
H           0.7715391    -3.1171050     0.9914367
C          -1.3841832    -2.9559997     1.0359321
H          -1.5009302    -3.8359702     1.6631930
27
189_C12H11N3O_2-3-12-10 (105,) energy =    -703.3958869
N           1.3278109    -0.9813091    -0.5989819
H           1.2871641    -0.2507606    -1.2968840
C           2.5772945    -1.5167763    -0.3400008
N           3.6015803    -0.8061180    -1.0046293
H           3.4122539     0.1923802    -1.0510955
O           2.7919491    -2.5094889     0.3332500
C           7.5174923    -1.3058634     0.3117875
H           8.5309032    -1.3900272     0.6920947
C           7.1195780    -1.9699653    -0.8479886
H           7.8205931    -2.5861586    -1.4041612
C           5.8072304    -1.8186171    -1.2912938
H           5.4438357    -2.3027297    -2.1909300
C           4.9424761    -1.0273715    -0.5343551
N           5.3147854    -0.3641661     0.5616880
C           6.5802205    -0.5108543     0.9721990
H           6.8558471     0.0392110     1.8701609
C          -2.5033781    -2.1996925     0.6792805
H          -3.4970236    -2.4985456     1.0003844
C          -2.3390407    -1.1533898    -0.2298064
H          -3.2043584    -0.6276178    -0.6246604
C          -1.0642221    -0.7728653    -0.6395080
H          -0.9452433     0.0458607    -1.3473356
C           0.0712663    -1.4353025    -0.1460933
C          -0.0883791    -2.4876725     0.7684522
H           0.7840666    -3.0029051     1.1444669
C          -1.3731022    -2.8556658     1.1684909
H          -1.4849551    -3.6729307     1.8763461
27
189_C12H11N3O_2-3-12-10 (120,) energy =    -703.3960744
N           1.3394382    -0.9769453    -0.5114316
H           1.3359835    -0.1804283    -1.1343988
C           2.5799003    -1.3668138    -0.0336754
N           3.6130903    -0.7715725    -0.7933140
H           3.4320294    -0.7291497    -1.7892314
O           2.7719082    -2.1159362     0.9040815
C           7.5997019    -1.2872283     0.2234439
H           8.6327962    -1.3861217     0.5413125
C           7.1827184    -1.7094101    -1.0390202
H           7.8845792    -2.1583989    -1.7365633
C           5.8424607    -1.5704093    -1.3865458
H           5.4722994    -1.9188818    -2.3469500
C           4.9737288    -0.9760000    -0.4606550
N           5.3608036    -0.5598618     0.7466142
C           6.6446309    -0.7329081     1.0760345
H           6.9249328    -0.3958291     2.0726355
C          -2.5409806    -2.1903836     0.6138893
H          -3.5468440    -2.4933075     0.8899233
C          -2.3397919    -1.1962859    -0.3450900
H          -3.1885929    -0.7165374    -0.8251575
C          -1.0493078    -0.8106484    -0.6967761
H          -0.9013671    -0.0373656    -1.4487786
C           0.0652942    -1.4121398    -0.0904859
C          -0.1314922    -2.4099652     0.8764132
H           0.7244562    -2.8645600     1.3548169
C          -1.4314949    -2.7866185     1.2143793
H          -1.5720634    -3.5592907     1.9658045
27
189_C12H11N3O_2-3-12-10 (135,) energy =    -703.3968438
N           1.3410158    -1.0729808    -0.5245400
H           1.3623894    -0.3113525    -1.1892844
C           2.5679775    -1.4765345    -0.0205304
N           3.6171451    -0.9673180    -0.8182958
H           3.4312351    -0.9413562    -1.8127816
O           2.7307394    -2.1787707     0.9569805
C           7.6221196    -1.2157938     0.2077563
H           8.6584749    -1.2505426     0.5281232
C           7.2516837    -1.5256700    -1.1016839
H           7.9967472    -1.8175343    -1.8368962
C           5.9072241    -1.4766465    -1.4525944
H           5.5795803    -1.7409607    -2.4546787
C           4.9777231    -1.0875742    -0.4746581
N           5.3196653    -0.7721984     0.7760436
C           6.6135190    -0.8564620     1.1012263
H           6.8550190    -0.6064838     2.1330673
C          -2.5789045    -2.1028178     0.6456989
H          -3.5947089    -2.3586697     0.9327376
C          -2.3434684    -1.1669340    -0.3627906
H          -3.1751364    -0.6860748    -0.8709047
C          -1.0403708    -0.8414719    -0.7283800
H          -0.8657209    -0.1135520    -1.5189856
C           0.0527809    -1.4457998    -0.0867966
C          -0.1783822    -2.3852132     0.9297784
H           0.6610030    -2.8414920     1.4350753
C          -1.4907207    -2.7021108     1.2811048
H          -1.6579607    -3.4297786     2.0709989
27
189_C12H11N3O_2-3-12-10 (150,) energy =    -703.3968219
N           1.3530402    -1.1694604    -0.5257064
H           1.4019823    -0.4456210    -1.2298962
C           2.5647310    -1.5844796     0.0093573
N           3.6307143    -1.1667370    -0.8158993
H           3.4417284    -1.1391646    -1.8088143
O           2.6960176    -2.2327938     1.0271142
C           7.6402747    -1.1281006     0.2076336
H           8.6775906    -1.0962925     0.5247252
C           7.2919162    -1.3308732    -1.1295463
H           8.0560209    -1.4658614    -1.8903804
C           5.9484611    -1.3729635    -1.4795856
H           5.6427449    -1.5510824    -2.5075366
C           4.9896509    -1.1916570    -0.4664595
N           5.3090223    -0.9745844     0.8104958
C           6.6077932    -0.9624686     1.1289929
H           6.8296516    -0.7957305     2.1819281
C          -2.6065942    -2.0128200     0.6590214
H          -3.6326440    -2.2206298     0.9483727
C          -2.3328245    -1.1343679    -0.3906107
H          -3.1439170    -0.6509705    -0.9287041
C          -1.0169250    -0.8699826    -0.7594132
H          -0.8123075    -0.1868071    -1.5821638
C           0.0506384    -1.4788929    -0.0801200
C          -0.2190954    -2.3605019     0.9779673
H           0.6004147    -2.8196109     1.5123404
C          -1.5438703    -2.6168086     1.3320272
H          -1.7411947    -3.3000803     2.1539816
27
189_C12H11N3O_2-3-12-10 (165,) energy =    -703.3962077
N           1.3642523    -1.2618802    -0.5356831
H           1.4300481    -0.5915265    -1.2895214
C           2.5612344    -1.6690532     0.0430587
N           3.6435348    -1.3497377    -0.7987890
H           3.4446698    -1.2630745    -1.7855496
O           2.6595522    -2.2471650     1.1055526
C           7.6543219    -1.0731035     0.1840809
H           8.6921846    -0.9898268     0.4897548
C           7.2915428    -1.1543505    -1.1628358
H           8.0463361    -1.1365783    -1.9444232
C           5.9491095    -1.2658784    -1.4974148
H           5.6359427    -1.3460053    -2.5355703
C           5.0008414    -1.2864657    -0.4560856
N           5.3314048    -1.1878017     0.8316321
C           6.6323680    -1.0964356     1.1301689
H           6.8626696    -1.0271953     2.1921759
C          -2.6244730    -1.9370555     0.6619992
H          -3.6572435    -2.1032339     0.9543510
C          -2.3212204    -1.1292351    -0.4351493
H          -3.1164577    -0.6596534    -1.0080190
C          -0.9965176    -0.9184192    -0.8069886
H          -0.7693920    -0.2901507    -1.6668523
C           0.0512188    -1.5113127    -0.0838061
C          -0.2483194    -2.3219076     1.0220323
H           0.5556455    -2.7680601     1.5898393
C          -1.5815866    -2.5249290     1.3787759
H          -1.8014457    -3.1535049     2.2378158
27
189_C12H11N3O_2-3-12-10 (180,) energy =    -703.3953162
N           1.3718941    -1.3432410    -0.5505312
H           1.4399439    -0.7599600    -1.3732653
C           2.5608276    -1.6980059     0.0820340
N           3.6558792    -1.4609413    -0.7672724
H           3.4503455    -1.3194774    -1.7461648
O           2.6358943    -2.1752272     1.1950732
C           7.6746843    -1.0805662     0.1600476
H           8.7160683    -0.9844763     0.4495718
C           7.2700495    -0.9750230    -1.1735448
H           7.9952281    -0.7904052    -1.9615298
C           5.9249730    -1.1078704    -1.4860792
H           5.5820487    -1.0318642    -2.5152860
C           5.0140056    -1.3504865    -0.4374185
N           5.3846109    -1.4400752     0.8388672
C           6.6878004    -1.3098782     1.1148502
H           6.9493402    -1.3923354     2.1686381
C          -2.6330099    -1.8834584     0.6615943
H          -3.6698998    -2.0162696     0.9563987
C          -2.3131319    -1.1889991    -0.5061922
H          -3.0992937    -0.7754422    -1.1323049
C          -0.9832522    -1.0205052    -0.8808949
H          -0.7429930    -0.4808616    -1.7957322
C           0.0533727    -1.5432427    -0.0905012
C          -0.2629057    -2.2400314     1.0860912
H           0.5318111    -2.6326217     1.7041157
C          -1.6012454    -2.4015843     1.4450862
H          -1.8339172    -2.9419497     2.3590189
