23
425_C11H10N2_1-0-18-17 (-165,) energy =    -534.6944667
C           2.4931928    -1.3442312    -0.4018731
C           1.1591554    -0.9485455    -0.1163912
N           0.8089838     0.3797318     0.1892126
H          -0.1869994     0.5482083     0.0957155
H           1.3280206     1.0759755    -0.3347983
C           0.1371906    -1.9138183    -0.1393070
H          -0.8805743    -1.5985698     0.0833203
C           0.3981101    -3.2412222    -0.4528707
H          -0.4158912    -3.9615093    -0.4602131
C           1.6993779    -3.6346374    -0.7735909
H           1.9183538    -4.6663925    -1.0325310
C           2.7187528    -2.6919259    -0.7422400
H           3.7386866    -2.9784512    -0.9706655
C           6.0316384     1.0046218    -0.0592494
H           6.9708592     1.5472231    -0.0121966
C           5.9300303    -0.1873379    -0.7791876
H           6.7998986    -0.5934767    -1.2948584
N           4.8100092    -0.9000894    -0.8845160
C           3.6859864    -0.4567133    -0.2782857
C           3.7113720     0.7149987     0.5049497
H           2.8368637     1.0199546     1.0659961
C           4.8925866     1.4471574     0.6072886
H           4.9194583     2.3480955     1.2151399
23
425_C11H10N2_1-0-18-17 (-150,) energy =    -534.6959098
C           2.5004164    -1.3763380    -0.3403531
C           1.1624563    -0.9399064    -0.1624177
N           0.8364574     0.4030728     0.0883870
H          -0.1305834     0.6214043    -0.1242517
H           1.4567105     1.0744314    -0.3503613
C           0.1232872    -1.8850034    -0.2198654
H          -0.9008114    -1.5441518    -0.0800535
C           0.3805186    -3.2290418    -0.4608163
H          -0.4457811    -3.9343550    -0.4972661
C           1.6919397    -3.6628702    -0.6694410
H           1.9043217    -4.7090311    -0.8688945
C           2.7266819    -2.7368077    -0.6120061
H           3.7529846    -3.0482409    -0.7737290
C           5.9872731     1.0429336    -0.0974277
H           6.9109375     1.6134623    -0.0818307
C           5.8541048    -0.0743164    -0.9237510
H           6.6815594    -0.3895817    -1.5587078
N           4.7488648    -0.8169871    -1.0018516
C           3.6847456    -0.4790699    -0.2421238
C           3.7408098     0.6163042     0.6416042
H           2.8977677     0.8400096     1.2857194
C           4.9026423     1.3819888     0.7083423
H           4.9603019     2.2254104     1.3918128
23
425_C11H10N2_1-0-18-17 (-135,) energy =    -534.6955225
C           2.5078694    -1.4088854    -0.2794199
C           1.1744499    -0.9355697    -0.2115303
N           0.8766980     0.4211702    -0.0155128
H          -0.0558878     0.6766399    -0.3191821
H           1.5665724     1.0632476    -0.3884401
C           0.1200957    -1.8607157    -0.3029174
H          -0.9038119    -1.4964114    -0.2463714
C           0.3664388    -3.2185268    -0.4714151
H          -0.4707874    -3.9087326    -0.5371370
C           1.6784067    -3.6882160    -0.5699089
H           1.8789232    -4.7457574    -0.7134948
C           2.7279495    -2.7792751    -0.4850640
H           3.7556150    -3.1166961    -0.5767041
C           5.9434201     1.0802328    -0.1327227
H           6.8491038     1.6790887    -0.1469602
C           5.7623456     0.0443541    -1.0504063
H           6.5315798    -0.1742829    -1.7903113
N           4.6735207    -0.7280477    -1.1004312
C           3.6895715    -0.5057577    -0.2049045
C           3.7901856     0.5100409     0.7635740
H           2.9903291     0.6516686     1.4830244
C           4.9299628     1.3100269     0.7962269
H           5.0273178     2.0941786     1.5427731
23
425_C11H10N2_1-0-18-17 (-120,) energy =    -534.6937738
C           2.5112197    -1.4288719    -0.2432968
C           1.1884641    -0.9284615    -0.2772953
N           0.9205692     0.4419751    -0.1563381
H           0.0203199     0.7171895    -0.5308779
H           1.6576174     1.0491016    -0.4947908
C           0.1214726    -1.8376792    -0.3786096
H          -0.8971171    -1.4552274    -0.3987042
C           0.3518895    -3.2068869    -0.4601805
H          -0.4934710    -3.8859310    -0.5375447
C           1.6569189    -3.7042635    -0.4567513
H           1.8430295    -4.7713634    -0.5331312
C           2.7191501    -2.8089225    -0.3628856
H           3.7431031    -3.1711084    -0.3806825
C           5.9025218     1.1205855    -0.1499725
H           6.7905600     1.7449018    -0.1807703
C           5.6514881     0.1935739    -1.1622043
H           6.3457533     0.0896914    -1.9952483
N           4.5779504    -0.6036064    -1.1977193
C           3.6935803    -0.5204660    -0.1843773
C           3.8609477     0.3874769     0.8755180
H           3.1221266     0.4282870     1.6697116
C           4.9802865     1.2163441     0.8913942
H           5.1322001     1.9195589     1.7062273
23
425_C11H10N2_1-0-18-17 (-105,) energy =    -534.6919506
C           2.5074111    -1.4293274    -0.2528977
C           1.1955241    -0.9188747    -0.3734270
N           0.9553812     0.4611829    -0.3618223
H           0.0749139     0.7294472    -0.7848320
H           1.7177625     1.0246930    -0.7185980
C           0.1201407    -1.8203557    -0.4452688
H          -0.8918992    -1.4300140    -0.5322766
C           0.3365546    -3.1945326    -0.4117289
H          -0.5136329    -3.8694361    -0.4704071
C           1.6328777    -3.7037256    -0.3148452
H           1.8076324    -4.7753599    -0.2986234
C           2.7037970    -2.8141099    -0.2452777
H           3.7213605    -3.1907331    -0.1828960
C           5.8717941     1.1569602    -0.1400268
H           6.7482237     1.7977643    -0.1672073
C           5.5175267     0.3944027    -1.2531760
H           6.1165083     0.4381472    -2.1619739
N           4.4523585    -0.4156012    -1.2971453
C           3.6867942    -0.5098901    -0.1933487
C           3.9584403     0.2292907     0.9690927
H           3.3053616     0.1328019     1.8308223
C           5.0674217     1.0718451     0.9958161
H           5.3007307     1.6478882     1.8875522
23
425_C11H10N2_1-0-18-17 (-90,) energy =    -534.6917788
C           2.2229511    -1.0794718    -0.5013810
C           1.7258122    -1.8698986     0.5584430
N           2.3560400    -1.8571076     1.8087808
H           1.7693991    -2.1836743     2.5674147
H           2.7916803    -0.9726877     2.0436202
C           0.6208655    -2.7044813     0.3234245
H           0.2371402    -3.3169274     1.1369787
C           0.0180440    -2.7531343    -0.9304809
H          -0.8373127    -3.4059733    -1.0851899
C           0.4996162    -1.9663164    -1.9777689
H           0.0286682    -1.9967478    -2.9557807
C           1.6007135    -1.1400409    -1.7514065
H           1.9918452    -0.5234110    -2.5568207
C           5.6239414     1.4105776     0.0051444
H           6.4559536     2.0956331     0.1391059
C           4.3185899     1.8220910     0.2730134
H           4.1222848     2.8351923     0.6217133
N           3.2424569     1.0379343     0.1264892
C           3.4362557    -0.2230207    -0.3043272
C           4.7142494    -0.7277349    -0.5882497
H           4.8230972    -1.7539811    -0.9246738
C           5.8224715     0.1018039    -0.4330856
H           6.8216619    -0.2662721    -0.6511644
23
425_C11H10N2_1-0-18-17 (-75,) energy =    -534.6939929
C           2.2207311    -1.0714653    -0.4717544
C           1.6605263    -1.7966930     0.6056231
N           2.2044026    -1.6804382     1.8884670
H           1.5782777    -1.9738802     2.6286544
H           2.5962364    -0.7652847     2.0818210
C           0.5800904    -2.6581499     0.3555727
H           0.1475678    -3.2192066     1.1816114
C           0.0645961    -2.8012737    -0.9297758
H          -0.7746778    -3.4722264    -1.0948292
C           0.6126703    -2.0867466    -1.9960475
H           0.2102802    -2.1926212    -2.9990492
C           1.6955303    -1.2401583    -1.7568067
H           2.1448655    -0.6873896    -2.5783839
C           5.6505293     1.3757830     0.0183252
H           6.4889907     2.0521034     0.1553780
C           4.3924723     1.6980523     0.5270882
H           4.2393917     2.6313718     1.0673738
N           3.3103755     0.9223164     0.3870323
C           3.4503488    -0.2472399    -0.2680898
C           4.6795356    -0.6573535    -0.8061405
H           4.7495023    -1.6095620    -1.3222861
C           5.7932705     0.1665646    -0.6608388
H           6.7553604    -0.1308917    -1.0699393
23
425_C11H10N2_1-0-18-17 (-60,) energy =    -534.6974308
C           2.2417667    -1.0934517    -0.4577481
C           1.6109792    -1.7386073     0.6358759
N           2.0790258    -1.5457318     1.9354956
H           1.4119390    -1.7936445     2.6559231
H           2.4748853    -0.6234061     2.0861940
C           0.5338498    -2.6040039     0.3805428
H           0.0507854    -3.1027878     1.2183771
C           0.0853129    -2.8286902    -0.9176472
H          -0.7542433    -3.4992708    -1.0829492
C           0.6993872    -2.1927617    -1.9982816
H           0.3486019    -2.3572265    -3.0126663
C           1.7797840    -1.3459683    -1.7554072
H           2.2754689    -0.8501656    -2.5866386
C           5.6697042     1.3558033     0.0313331
H           6.5083688     2.0297537     0.1773516
C           4.4697993     1.5611489     0.7118588
H           4.3630270     2.3999949     1.3982753
N           3.3917036     0.7815401     0.5725474
C           3.4724899    -0.2796418    -0.2573246
C           4.6457770    -0.5688523    -0.9725747
H           4.6783167    -1.4387653    -1.6205270
C           5.7550758     0.2599329    -0.8264909
H           6.6726504     0.0507666    -1.3703300
23
425_C11H10N2_1-0-18-17 (-45,) energy =    -534.7003087
C           2.2734610    -1.1334260    -0.4482788
C           1.5697723    -1.6947068     0.6526229
N           1.9658222    -1.4451720     1.9604491
H           1.2614915    -1.6441370     2.6593661
H           2.4102315    -0.5404335     2.0830314
C           0.4865431    -2.5548714     0.3927152
H          -0.0465337    -2.9909828     1.2351863
C           0.0932527    -2.8502642    -0.9070952
H          -0.7532246    -3.5124565    -1.0709246
C           0.7699081    -2.2905572    -1.9937157
H           0.4591636    -2.5032640    -3.0120969
C           1.8534299    -1.4518323    -1.7490526
H           2.3822437    -1.0041929    -2.5867135
C           5.6799136     1.3507845     0.0508529
H           6.5147995     2.0262453     0.2097722
C           4.5413931     1.4306956     0.8508818
H           4.4783647     2.1712491     1.6469113
N           3.4731852     0.6396884     0.7064986
C           3.4924406    -0.3062697    -0.2578227
C           4.6120986    -0.4696510    -1.0937275
H           4.6171020    -1.2584803    -1.8384623
C           5.7111890     0.3688300    -0.9392833
H           6.5836632     0.2513554    -1.5768218
23
425_C11H10N2_1-0-18-17 (-30,) energy =    -534.7015792
C           2.3111734    -1.1869310    -0.4417741
C           1.5365865    -1.6617085     0.6578262
N           1.8653827    -1.3619345     1.9669227
H           1.1309528    -1.5148624     2.6449021
H           2.3830229    -0.4950966     2.0778027
C           0.4412631    -2.5102144     0.3947414
H          -0.1385665    -2.8808629     1.2376860
C           0.0948070    -2.8722642    -0.8987693
H          -0.7617646    -3.5216752    -1.0612615
C           0.8318741    -2.3907328    -1.9850226
H           0.5567406    -2.6481230    -3.0032709
C           1.9215429    -1.5640718    -1.7401085
H           2.4767898    -1.1660222    -2.5845138
C           5.6936530     1.3429005     0.0652029
H           6.5251305     2.0196577     0.2351433
C           4.6220884     1.2973065     0.9529097
H           4.6068362     1.9386039     1.8329321
N           3.5646334     0.4932980     0.8025882
C           3.5132895    -0.3345733    -0.2650873
C           4.5760270    -0.3724875    -1.1910038
H           4.5539968    -1.0781394    -2.0137669
C           5.6648325     0.4747018    -1.0271513
H           6.4879915     0.4485649    -1.7365134
23
425_C11H10N2_1-0-18-17 (-15,) energy =    -534.7012560
C           2.3424543    -1.2335250    -0.4328257
C           1.5008071    -1.6208860     0.6572507
N           1.7654872    -1.2672226     1.9611927
H           1.0018048    -1.3638864     2.6155661
H           2.3738027    -0.4612264     2.0737588
C           0.3892006    -2.4527301     0.3934703
H          -0.2359634    -2.7526325     1.2321223
C           0.0868951    -2.8858975    -0.8861329
H          -0.7811172    -3.5202905    -1.0471090
C           0.8880089    -2.4942779    -1.9645229
H           0.6519705    -2.8072642    -2.9769483
C           1.9855244    -1.6812447    -1.7217715
H           2.5731908    -1.3519212    -2.5720763
C           5.7073475     1.3361673     0.0876285
H           6.5379472     2.0107319     0.2694378
C           4.7106070     1.1595737     1.0409902
H           4.7513991     1.6938438     1.9890503
N           3.6623279     0.3456778     0.8799520
C           3.5289591    -0.3558982    -0.2694419
C           4.5220505    -0.2551560    -1.2697329
H           4.4622270    -0.8566203    -2.1685013
C           5.6037390     0.5957350    -1.0916326
H           6.3669766     0.6711782    -1.8618518
23
425_C11H10N2_1-0-18-17 (0,) energy =    -534.7003665
C           2.3648156    -1.2705455    -0.4301669
C           1.4623038    -1.5710554     0.6426042
N           1.6641649    -1.1458098     1.9303597
H           0.8768043    -1.1748013     2.5610919
H           2.3809016    -0.4380863     2.0629773
C           0.3314274    -2.3796086     0.3764988
H          -0.3451063    -2.5967953     1.2006319
C           0.0824734    -2.9000100    -0.8796108
H          -0.7969381    -3.5183140    -1.0412666
C           0.9641218    -2.6298901    -1.9332862
H           0.7867489    -3.0331742    -2.9255174
C           2.0702742    -1.8304111    -1.6928724
H           2.7295771    -1.6273815    -2.5287086
C           5.7365880     1.2999236     0.1100664
H           6.5772132     1.9579529     0.3054442
C           4.8328069     0.9783045     1.1149758
H           4.9522244     1.3841446     2.1184960
N           3.7819311     0.1705223     0.9402253
C           3.5452551    -0.3825596    -0.2733165
C           4.4251836    -0.0974342    -1.3440533
H           4.2667334    -0.5241548    -2.3258937
C           5.5142678     0.7388800    -1.1494417
H           6.1865354     0.9514255    -1.9767193
23
425_C11H10N2_1-0-18-17 (15,) energy =    -534.7012559
C           2.3516584    -1.2010333    -0.4192878
C           1.3879740    -1.4052097     0.6181402
N           1.4553570    -0.7575966     1.8313642
H           0.8974296    -1.1469601     2.5783684
H           2.3742085    -0.4005037     2.0774049
C           0.2881276    -2.2556530     0.3649147
H          -0.4463533    -2.3925519     1.1560571
C           0.1291918    -2.9042498    -0.8476867
H          -0.7282261    -3.5549301    -1.0002006
C           1.0772927    -2.7319811    -1.8623356
H           0.9783237    -3.2503726    -2.8110930
C           2.1607306    -1.8970011    -1.6311135
H           2.9089475    -1.8058999    -2.4112951
C           5.8009510     1.2498074     0.1231828
H           6.6734131     1.8647334     0.3197966
C           4.9976163     0.7987788     1.1647432
H           5.2301357     1.0604222     2.1959680
N           3.9109541     0.0396420     0.9914927
C           3.5479355    -0.3364675    -0.2567115
C           4.2962524     0.1131367    -1.3679328
H           3.9843751    -0.1280967    -2.3766971
C           5.4240138     0.8983661    -1.1744799
H           5.9975616     1.2439759    -2.0306697
23
425_C11H10N2_1-0-18-17 (30,) energy =    -534.7015792
C           2.3812271    -1.2484983    -0.3969091
C           1.3639974    -1.3656456     0.5961349
N           1.4073477    -0.6453947     1.7757263
H           0.8038375    -0.9840419     2.5130459
H           2.3443847    -0.3859679     2.0696137
C           0.2554507    -2.1965534     0.3320562
H          -0.5250417    -2.2723937     1.0865267
C           0.1457282    -2.9091329    -0.8529650
H          -0.7201617    -3.5459071    -1.0160639
C           1.1503432    -2.8216192    -1.8215353
H           1.0866928    -3.3922964    -2.7429683
C           2.2421399    -1.9967243    -1.5804354
H           3.0369218    -1.9511534    -2.3193457
C           5.8060355     1.2231539     0.1141564
H           6.6840530     1.8333786     0.3010761
C           5.1053978     0.6448058     1.1691313
H           5.4277749     0.8010956     2.1975275
N           4.0209933    -0.1209046     1.0113214
C           3.5580972    -0.3583963    -0.2366588
C           4.1921056     0.2201211    -1.3554059
H           3.7833638     0.0716413    -2.3484970
C           5.3231969     1.0068701    -1.1772994
H           5.8150166     1.4571366    -2.0356869
23
425_C11H10N2_1-0-18-17 (45,) energy =    -534.7003078
C           2.4083894    -1.2982729    -0.3778233
C           1.3419845    -1.3281702     0.5623876
N           1.3675854    -0.5347930     1.7024221
H           0.7271180    -0.8234105     2.4309078
H           2.3054943    -0.3465548     2.0429636
C           0.2275054    -2.1441034     0.2923782
H          -0.5927898    -2.1614542     1.0072014
C           0.1612698    -2.9187166    -0.8595417
H          -0.7115298    -3.5435120    -1.0318970
C           1.2118716    -2.9060579    -1.7804594
H           1.1743142    -3.5208028    -2.6746440
C           2.3119987    -2.0901649    -1.5325112
H           3.1389680    -2.0785914    -2.2380212
C           5.8044990     1.2033865     0.1057953
H           6.6855439     1.8126216     0.2822306
C           5.2103303     0.4972170     1.1502576
H           5.6228774     0.5513418     2.1567046
N           4.1316448    -0.2792696     1.0048865
C           3.5661600    -0.3816754    -0.2177836
C           4.0892522     0.3169131    -1.3211216
H           3.5972758     0.2451657    -2.2853591
C           5.2191585     1.1114108    -1.1569375
H           5.6315808     1.6583714    -2.0008620
23
425_C11H10N2_1-0-18-17 (60,) energy =    -534.6974311
C           2.4324830    -1.3409736    -0.3618724
C           1.3214881    -1.2868924     0.5174060
N           1.3260996    -0.4198438     1.6096384
H           0.6501158    -0.6538309     2.3263679
H           2.2519022    -0.2666800     1.9962172
C           0.2033922    -2.0931247     0.2445915
H          -0.6519521    -2.0506627     0.9159341
C           0.1779670    -2.9341899    -0.8639076
H          -0.6990235    -3.5504839    -1.0453792
C           1.2706823    -2.9952598    -1.7307589
H           1.2597146    -3.6559901    -2.5923724
C           2.3769697    -2.1858517    -1.4773419
H           3.2324994    -2.2141917    -2.1479559
C           5.8092035     1.1838582     0.0997576
H           6.6938274     1.7913470     0.2649434
C           5.3306697     0.3423688     1.1037291
H           5.8397571     0.2874001     2.0650058
N           4.2566430    -0.4433924     0.9676832
C           3.5805235    -0.4066839    -0.1998074
C           3.9842071     0.4209688    -1.2599427
H           3.4081943     0.4346803    -2.1795477
C           5.1119948     1.2231403    -1.1070556
H           5.4384548     1.8717696    -1.9158482
23
425_C11H10N2_1-0-18-17 (75,) energy =    -534.6939916
C           2.4485903    -1.3707688    -0.3596709
C           1.3011628    -1.2395734     0.4568344
N           1.2756172    -0.2898304     1.4825941
H           0.5722595    -0.4671033     2.1896008
H           2.1830931    -0.1218182     1.9029456
C           0.1838653    -2.0487568     0.1942093
H          -0.7015546    -1.9494665     0.8190165
C           0.1985845    -2.9668883    -0.8522548
H          -0.6785189    -3.5836281    -1.0314953
C           1.3287225    -3.1015659    -1.6600509
H           1.3451237    -3.8197513    -2.4743454
C           2.4366309    -2.2902892    -1.4132266
H           3.3199684    -2.3710301    -2.0422122
C           5.8236003     1.1576954     0.0955228
H           6.7126927     1.7610650     0.2525900
C           5.4725025     0.1654057     1.0106842
H           6.0868600    -0.0132485     1.8922012
N           4.4004678    -0.6254777     0.8783313
C           3.6042025    -0.4382885    -0.1929003
C           3.8745168     0.5411978    -1.1604647
H           3.2044354     0.6618955    -2.0057053
C           5.0000137     1.3485821    -1.0131408
H           5.2291573     2.1135726    -1.7505277
23
425_C11H10N2_1-0-18-17 (90,) energy =    -534.6917788
C           2.4485735    -1.3783057    -0.3904344
C           1.2724342    -1.1802396     0.3662505
N           1.1969853    -0.1398581     1.3004158
H           0.4734889    -0.2664999     1.9981541
H           2.0827127     0.0904705     1.7358193
C           0.1651524    -2.0117103     0.1312458
H          -0.7435256    -1.8600010     0.7104687
C           0.2210713    -3.0194934    -0.8275718
H          -0.6493746    -3.6505876    -0.9882241
C           1.3845308    -3.2252666    -1.5704608
H           1.4346312    -4.0140151    -2.3151747
C           2.4853218    -2.3982738    -1.3452629
H           3.3984385    -2.5414028    -1.9176603
C           5.8456588     1.1180446     0.1107728
H           6.7407669     1.7115134     0.2721653
C           5.6177614    -0.0354804     0.8607687
H           6.3352423    -0.3505020     1.6174091
N           4.5424761    -0.8210485     0.7157495
C           3.6282681    -0.4727341    -0.2095260
C           3.7680574     0.6762644    -1.0025183
H           3.0006159     0.9222272    -1.7296608
C           4.8934989     1.4810517    -0.8410679
H           5.0249603     2.3735564    -1.4473626
23
425_C11H10N2_1-0-18-17 (105,) energy =    -534.6919506
C           2.4470923    -1.3669893    -0.4378160
C           1.2470184    -1.1175596     0.2648578
N           1.1171666     0.0042227     1.0937740
H           0.3896792    -0.0827352     1.7932915
H           1.9842240     0.3251238     1.5076488
C           0.1561513    -1.9823394     0.0739664
H          -0.7713452    -1.7893465     0.6093770
C           0.2525152    -3.0756435    -0.7814319
H          -0.6065847    -3.7293274    -0.9095032
C           1.4434080    -3.3386015    -1.4609586
H           1.5267518    -4.1963512    -2.1216547
C           2.5296156    -2.4852044    -1.2739025
H           3.4695136    -2.6803799    -1.7834829
C           5.8693228     1.0831279     0.1154893
H           6.7720901     1.6624102     0.2856123
C           5.7401812    -0.1995664     0.6485189
H           6.5442652    -0.6302960     1.2439397
N           4.6593977    -0.9726954     0.4848066
C           3.6428795    -0.4863291    -0.2524076
C           3.6783226     0.7985873    -0.8173675
H           2.8293966     1.1551944    -1.3923071
C           4.8081567     1.5921205    -0.6323376
H           4.8601223     2.5871304    -1.0667407
23
425_C11H10N2_1-0-18-17 (120,) energy =    -534.6937740
C           2.4482635    -1.3612821    -0.4457424
C           1.2160057    -1.0717755     0.1855573
N           1.0324290     0.1017691     0.9295908
H           0.2772993     0.0452838     1.6026728
H           1.8748162     0.4688464     1.3562761
C           0.1398820    -1.9588211     0.0111168
H          -0.8105893    -1.7340632     0.4909305
C           0.2782597    -3.1120530    -0.7540786
H          -0.5718683    -3.7793504    -0.8711592
C           1.5012545    -3.4174355    -1.3555441
H           1.6189852    -4.3225966    -1.9437517
C           2.5735075    -2.5461930    -1.1821960
H           3.5402620    -2.7740945    -1.6219860
C           5.8979156     1.0499156     0.0957010
H           6.8116180     1.6143078     0.2566738
C           5.8315188    -0.3027760     0.4315001
H           6.6976448    -0.8049692     0.8608715
N           4.7415337    -1.0612349     0.2702940
C           3.6460054    -0.4894153    -0.2668192
C           3.6185259     0.8679950    -0.6308511
H           2.7138268     1.2924640    -1.0546620
C           4.7598915     1.6450180    -0.4474156
H           4.7618308     2.6946652    -0.7298423
23
425_C11H10N2_1-0-18-17 (135,) energy =    -534.6955226
C           2.4529751    -1.3648248    -0.4059833
C           1.1840557    -1.0385993     0.1325637
N           0.9542048     0.1647387     0.8159208
H           0.1461935     0.1327328     1.4268954
H           1.7618692     0.5341952     1.3042359
C           0.1148665    -1.9305569    -0.0602380
H          -0.8604668    -1.6767350     0.3503719
C           0.2882980    -3.1230853    -0.7534439
H          -0.5588731    -3.7910218    -0.8869120
C           1.5441762    -3.4652831    -1.2606295
H           1.6907614    -4.4003718    -1.7929296
C           2.6089892    -2.5906655    -1.0705688
H           3.5986103    -2.8418473    -1.4392132
C           5.9328506     1.0241073     0.0452360
H           6.8586275     1.5768839     0.1735744
C           5.9001573    -0.3590890     0.2287640
H           6.8067719    -0.8982082     0.5014943
N           4.7994131    -1.1046484     0.0978281
C           3.6476932    -0.4908684    -0.2432693
C           3.5886525     0.8983994    -0.4586112
H           2.6514638     1.3604401    -0.7512444
C           4.7450521     1.6606590    -0.3108236
H           4.7187886     2.7339979    -0.4809895
23
425_C11H10N2_1-0-18-17 (150,) energy =    -534.6959097
C           2.4696392    -1.3763080    -0.3387344
C           1.1667017    -1.0181072     0.0929112
N           0.8955978     0.2028017     0.7320996
H           0.0294873     0.1893036     1.2590728
H           1.6545367     0.5540092     1.3053234
C           0.1020754    -1.9057245    -0.1418139
H          -0.8954886    -1.6236923     0.1895850
C           0.3044392    -3.1271747    -0.7724824
H          -0.5407350    -3.7898031    -0.9403301
C           1.5893319    -3.5026769    -1.1719977
H           1.7615775    -4.4591979    -1.6564955
C           2.6481228    -2.6309441    -0.9469553
H           3.6554661    -2.9008630    -1.2450287
C           5.9709636     1.0126616    -0.0157686
H           6.9047225     1.5602815     0.0685550
C           5.9556281    -0.3821666     0.0387538
H           6.8854321    -0.9370432     0.1604484
N           4.8479981    -1.1201920    -0.0491143
C           3.6609479    -0.4939150    -0.1987590
C           3.5860395     0.9095419    -0.2922029
H           2.6320268     1.3935082    -0.4690644
C           4.7529780     1.6642698    -0.1961581
H           4.7085805     2.7476858    -0.2739870
23
425_C11H10N2_1-0-18-17 (165,) energy =    -534.6944667
C           2.4844180    -1.3847535    -0.2678555
C           1.1560001    -0.9979417     0.0541293
N           0.8467052     0.2400342     0.6474973
H          -0.0806183     0.2510302     1.0586149
H           1.5301300     0.5558802     1.3271155
C           0.0977481    -1.8804908    -0.2244137
H          -0.9158073    -1.5715936     0.0247184
C           0.3222983    -3.1291160    -0.7891708
H          -0.5195924    -3.7860001    -0.9921234
C           1.6276655    -3.5363156    -1.0738999
H           1.8212163    -4.5141487    -1.5050263
C           2.6798751    -2.6676728    -0.8145744
H           3.6991804    -2.9559907    -1.0437463
C           6.0058565     1.0069476    -0.0781856
H           6.9445935     1.5510272    -0.0392450
C           5.9897604    -0.3869795    -0.1550015
H           6.9246074    -0.9459944    -0.1878598
N           4.8769113    -1.1172941    -0.1998559
C           3.6772807    -0.4958395    -0.1555156
C           3.6027660     0.9114223    -0.1208515
H           2.6444055     1.4121926    -0.1785588
C           4.7768752     1.6605982    -0.0778178
H           4.7252468     2.7463358    -0.0575511
23
425_C11H10N2_1-0-18-17 (180,) energy =    -534.6915883
C           2.4822254    -1.3122918    -0.4397442
C           1.1575481    -0.9600077    -0.0611252
N           0.7914101     0.3489969     0.3171783
H          -0.2161883     0.4562979     0.3767085
H           1.1671373     1.0673947    -0.2931715
C           0.1531980    -1.9438173    -0.0683192
H          -0.8537831    -1.6571811     0.2298162
C           0.4114926    -3.2490870    -0.4638252
H          -0.3901031    -3.9830977    -0.4576120
C           1.6953762    -3.5964366    -0.8888020
H           1.9152931    -4.6075176    -1.2190352
C           2.7003631    -2.6391449    -0.8646101
H           3.7104484    -2.9008604    -1.1548235
C           6.0670026     0.9726043    -0.0203180
H           7.0190330     1.4891266     0.0539713
C           5.9826960    -0.2957700    -0.5976868
H           6.8789203    -0.7908990    -0.9710325
N           4.8494236    -0.9810988    -0.7219303
C           3.6870280    -0.4376551    -0.2935008
C           3.6925202     0.8199555     0.3443775
H           2.7937914     1.2184615     0.7929109
C           4.8890941     1.5230363     0.4740597
H           4.8934992     2.4901006     0.9707145
