30
373_C12H16O2_0-16-18-25 (-165,) energy =    -617.3527208
C          -0.2527026     0.1792988    -1.3582315
O           0.0521633    -1.0905106    -1.9215222
H           0.9797560    -1.0293255    -2.2068426
H          -0.2867641     0.9419600    -2.1537173
C          -1.6215816     0.0856567    -0.6807913
H          -1.9273886     1.0965365    -0.3757261
H          -2.3510601    -0.2600947    -1.4219852
C          -1.5982107    -0.8449782     0.5403022
H          -1.4190970    -1.8726019     0.2027175
H          -2.5764381    -0.8350551     1.0367285
C          -0.4956753    -0.4309480     1.5251705
H          -0.4497344    -1.1319348     2.3674188
H          -0.7373976     0.5533965     1.9543356
C           0.8797220    -0.3663097     0.8383638
H           1.1531308    -1.3604349     0.4656945
H           1.6498831    -0.0644092     1.5543954
C           0.8405431     0.5948372    -0.3553260
H           0.6414691     1.6215458    -0.0133533
O           2.0536949     0.5852601    -1.1458542
C           5.8959695     0.6653601     0.4775383
H           6.9055193     0.6868518     0.8775405
C           4.8997986     1.4668497     1.0375387
H           5.1329109     2.1205134     1.8740695
C           3.6008261     1.4481139     0.5272876
H           2.8354234     2.0895175     0.9532210
C           3.2909258     0.6055589    -0.5472254
C           4.2860640    -0.1973746    -1.1135787
H           4.0283741    -0.8372365    -1.9523184
C           5.5829939    -0.1616629    -0.6036530
H           6.3498350    -0.7887375    -1.0508074
30
373_C12H16O2_0-16-18-25 (-150,) energy =    -617.3501467
C          -0.2422305     0.2129187    -1.3477413
O           0.2126541    -1.0165481    -1.8979115
H           1.1260818    -0.8434319    -2.1828527
H          -0.3420693     0.9651943    -2.1476667
C          -1.6089800    -0.0276305    -0.7031109
H          -2.0317613     0.9450880    -0.4141501
H          -2.2770741    -0.4558188    -1.4590234
C          -1.5137461    -0.9420501     0.5259275
H          -1.2127406    -1.9456914     0.2029031
H          -2.4990335    -1.0380876     0.9986458
C          -0.4893883    -0.3998750     1.5320494
H          -0.3884092    -1.0830543     2.3841014
H          -0.8481517     0.5563715     1.9422543
C           0.8888496    -0.1921826     0.8798013
H           1.2792322    -1.1553354     0.5307408
H           1.5999955     0.1990778     1.6134067
C           0.7779979     0.7496829    -0.3241670
H           0.4642081     1.7502516     0.0080708
O           2.0052777     0.8861133    -1.0917408
C           5.8347911     0.5083325     0.5240468
H           6.8406039     0.4154723     0.9234727
C           4.9418849     1.4309352     1.0736613
H           5.2532411     2.0637401     1.9006696
C           3.6509425     1.5591081     0.5605964
H           2.9627130     2.2930907     0.9696199
C           3.2411754     0.7442833    -0.5018965
C           4.1328065    -0.1776856    -1.0568858
H           3.8041272    -0.7939174    -1.8887847
C           5.4263120    -0.2896170    -0.5462988
H           6.1137910    -1.0080979    -0.9847884
30
373_C12H16O2_0-16-18-25 (-135,) energy =    -617.3479303
C          -0.2331904     0.3490918    -1.3033236
O           0.3814913    -0.7349269    -1.9946787
H           1.2216861    -0.3776672    -2.3274901
H          -0.4160472     1.1772514    -2.0069267
C          -1.5694149    -0.1347515    -0.7348653
H          -2.1233233     0.7407396    -0.3675139
H          -2.1574790    -0.5661244    -1.5528326
C          -1.3872472    -1.1462330     0.4055836
H          -0.9462305    -2.0666613     0.0036799
H          -2.3642144    -1.4157134     0.8255192
C          -0.4728876    -0.5771838     1.4996783
H          -0.3186532    -1.3162248     2.2952345
H          -0.9584326     0.2907788     1.9706498
C           0.8898106    -0.1578619     0.9211628
H           1.3939721    -1.0424776     0.5187229
H           1.5345482     0.2538660     1.7057122
C           0.6977562     0.8715759    -0.1944589
H           0.2575632     1.7842671     0.2335106
O           1.9176364     1.2806785    -0.8777538
C           5.7664581     0.3802294     0.4690225
H           6.7774749     0.1604127     0.8002550
C           5.1781121     1.6090498     0.7759340
H           5.7310869     2.3508170     1.3463052
C           3.8801165     1.8940382     0.3501981
H           3.4129525     2.8495370     0.5695773
C           3.1644213     0.9460057    -0.3875163
C           3.7524641    -0.2834489    -0.7025461
H           3.1885447    -1.0114229    -1.2781941
C           5.0499156    -0.5624427    -0.2712698
H           5.5018071    -1.5194391    -0.5185270
30
373_C12H16O2_0-16-18-25 (-120,) energy =    -617.3468952
C          -0.1688983     0.3628942    -1.2763855
O           0.5516003    -0.6651993    -1.9572674
H           1.3379531    -0.2352064    -2.3301677
H          -0.3613538     1.1932239    -1.9736196
C          -1.5048438    -0.2197802    -0.8062173
H          -2.1428022     0.6108915    -0.4727957
H          -2.0023917    -0.6809703    -1.6666805
C          -1.3351506    -1.2277012     0.3395440
H          -0.7961357    -2.1087431    -0.0305706
H          -2.3187984    -1.5741519     0.6798180
C          -0.5546664    -0.6033417     1.5051562
H          -0.4148081    -1.3347164     2.3103414
H          -1.1359051     0.2263827     1.9345602
C           0.8186641    -0.0907957     1.0368465
H           1.4136705    -0.9423390     0.6952018
H           1.3666067     0.3726192     1.8657745
C           0.6446791     0.9231979    -0.0960018
H           0.0995806     1.7909980     0.3020057
O           1.8726882     1.4806292    -0.6401327
C           5.7672073     0.3197491     0.3285664
H           6.7905660     0.0414305     0.5639378
C           5.3018614     1.6044214     0.6170739
H           5.9631097     2.3328524     1.0792112
C           3.9866519     1.9605057     0.3194238
H           3.6082123     2.9553666     0.5336475
C           3.1267220     1.0335531    -0.2797535
C           3.5931149    -0.2524383    -0.5826474
H           2.9292543    -0.9690934    -1.0542749
C           4.9077014    -0.6028755    -0.2702455
H           5.2610707    -1.6036579    -0.5049620
30
373_C12H16O2_0-16-18-25 (-105,) energy =    -617.3462710
C          -0.0663065     0.3593562    -1.2580111
O           0.7063367    -0.6592343    -1.8980049
H           1.4760797    -0.2219794    -2.2944275
H          -0.2169969     1.1932966    -1.9602140
C          -1.4263289    -0.2471367    -0.8932457
H          -2.0995644     0.5686713    -0.5948006
H          -1.8527311    -0.7030303    -1.7936932
C          -1.3229943    -1.2702942     0.2475403
H          -0.7369015    -2.1331708    -0.0927472
H          -2.3222336    -1.6439464     0.5029360
C          -0.6533952    -0.6496696     1.4826268
H          -0.5586737    -1.3933336     2.2831322
H          -1.2900240     0.1556560     1.8785079
C           0.7378882    -0.0898444     1.1364314
H           1.3905203    -0.9193093     0.8525126
H           1.1938491     0.3941954     2.0082731
C           0.6261558     0.9257406    -0.0042176
H          -0.0048244     1.7533299     0.3486800
O           1.8562894     1.5954204    -0.3731719
C           5.8039256     0.3307355     0.1572842
H           6.8413487     0.0351985     0.2849607
C           5.4021313     1.6401250     0.4337473
H           6.1269372     2.3722890     0.7804156
C           4.0702938     2.0161817     0.2774513
H           3.7400781     3.0279210     0.4918226
C           3.1196482     1.0890313    -0.1721209
C           3.5208104    -0.2226020    -0.4637664
H           2.8002830    -0.9469952    -0.8238366
C           4.8573061    -0.5911117    -0.2880451
H           5.1555064    -1.6121408    -0.5125815
30
373_C12H16O2_0-16-18-25 (-90,) energy =    -617.3455933
C           0.0428040     0.3598801    -1.2047260
O           0.8318096    -0.6702940    -1.8035182
H           1.6432301    -0.2601215    -2.1409487
H          -0.0350117     1.2101061    -1.8992293
C          -1.3537466    -0.2271955    -0.9586005
H          -2.0351359     0.5921377    -0.6905084
H          -1.7165425    -0.6535865    -1.9003251
C          -1.3508608    -1.2833959     0.1573272
H          -0.7504115    -2.1437262    -0.1635079
H          -2.3711600    -1.6506327     0.3230120
C          -0.7733633    -0.7106677     1.4606302
H          -0.7470804    -1.4813267     2.2404981
H          -1.4331253     0.0873361     1.8327549
C           0.6434914    -0.1490110     1.2434879
H           1.3180108    -0.9736901     1.0005237
H           1.0238616     0.3197320     2.1587871
C           0.6224122     0.8943258     0.1206875
H          -0.0604122     1.6949511     0.4350256
O           1.8524589     1.6257643    -0.0702388
C           5.8403533     0.3745718    -0.0362309
H           6.8881139     0.0886627    -0.0292366
C           5.4635974     1.6989829     0.2077181
H           6.2194905     2.4541035     0.4079314
C           4.1213370     2.0621733     0.2052618
H           3.8137113     3.0849583     0.3997259
C           3.1228376     1.1081681    -0.0534330
C           3.4962669    -0.2198612    -0.3073682
H           2.7514788    -0.9740170    -0.5236773
C           4.8504777    -0.5715443    -0.2897080
H           5.1231887    -1.6058052    -0.4843458
30
373_C12H16O2_0-16-18-25 (-75,) energy =    -617.3463562
C           0.1913824     0.9005619    -0.8195048
O           0.9959263     0.1028254    -1.6877159
H           1.9072689     0.4358004    -1.6528494
H           0.2165256     1.9549170    -1.1377377
C          -1.2385736     0.3567906    -0.9275616
H          -1.9128864     1.0250068    -0.3739987
H          -1.5440615     0.3874959    -1.9795765
C          -1.3397232    -1.0729451    -0.3727783
H          -0.7567668    -1.7437039    -1.0145205
H          -2.3811018    -1.4159794    -0.4113173
C          -0.8104835    -1.1530047     1.0674897
H          -0.8310784    -2.1900393     1.4243530
H          -1.4748281    -0.5820546     1.7334306
C           0.6220068    -0.5962496     1.1847296
H           1.3076283    -1.2284873     0.6109231
H           0.9496337    -0.6063167     2.2311163
C           0.6658109     0.8347715     0.6453302
H          -0.0248805     1.4501682     1.2348410
O           1.9177069     1.5433727     0.8324291
C           5.6560106     0.1675431    -0.4332088
H           6.6362686    -0.1697101    -0.7573905
C           5.0098300     1.2048566    -1.1067563
H           5.4871783     1.6864369    -1.9560840
C           3.7489640     1.6364520    -0.6892149
H           3.2469635     2.4635732    -1.1841999
C           3.1202868     1.0263219     0.4064941
C           3.7819743     0.0046552     1.1005225
H           3.3177334    -0.4353517     1.9758562
C           5.0387312    -0.4232867     0.6719678
H           5.5431344    -1.2189365     1.2140674
30
373_C12H16O2_0-16-18-25 (-60,) energy =    -617.3466387
C           0.3197358     0.8041494    -0.8158608
O           1.1398206    -0.0882580    -1.5680192
H           2.0529696     0.2395647    -1.5372900
H           0.4182936     1.8312779    -1.2022952
C          -1.1259998     0.3200580    -0.9962500
H          -1.8046156     1.0512408    -0.5355034
H          -1.3521300     0.2980877    -2.0682868
C          -1.3381981    -1.0672762    -0.3687930
H          -0.7422963    -1.8006121    -0.9244649
H          -2.3892949    -1.3652022    -0.4694751
C          -0.9220013    -1.0844627     1.1104632
H          -1.0159484    -2.0970910     1.5215432
H          -1.6075523    -0.4485726     1.6906711
C           0.5199552    -0.5770628     1.3011613
H           1.2172776    -1.2662856     0.8125754
H           0.7781943    -0.5337230     2.3660656
C           0.6674478     0.8173924     0.6867343
H          -0.0452412     1.4925061     1.1756931
O           1.9297741     1.4657432     0.9830384
C           5.6175093     0.2405248    -0.5530605
H           6.5855176    -0.0597875    -0.9436404
C           4.9451791     1.3324889    -1.1040612
H           5.3900663     1.8916626    -1.9229287
C           3.7001243     1.7195220    -0.6020939
H           3.1759867     2.5826326    -1.0026719
C           3.1157755     1.0072027     0.4554360
C           3.8014756    -0.0747872     1.0238156
H           3.3639387    -0.5976512     1.8673052
C           5.0426608    -0.4553029     0.5134332
H           5.5670093    -1.2970946     0.9580752
30
373_C12H16O2_0-16-18-25 (-45,) energy =    -617.3459391
C           0.4382717     0.7028071    -0.7979754
O           1.2453592    -0.2826665    -1.4390922
H           2.1664616     0.0207258    -1.4129346
H           0.6230533     1.6940779    -1.2414684
C          -1.0215505     0.2942418    -1.0461041
H          -1.6816946     1.0869146    -0.6677484
H          -1.1811278     0.2273555    -2.1281621
C          -1.3564851    -1.0431995    -0.3658331
H          -0.7706654    -1.8373437    -0.8431344
H          -2.4146964    -1.2862964    -0.5233831
C          -1.0385664    -1.0045832     1.1372030
H          -1.2126047    -1.9887125     1.5894282
H          -1.7259800    -0.3064642     1.6383693
C           0.4117151    -0.5578545     1.3989463
H           1.1056896    -1.3053322     0.9977094
H           0.6031821    -0.4637672     2.4742628
C           0.6803695     0.7898987     0.7231723
H          -0.0248883     1.5302137     1.1201617
O           1.9598651     1.3540069     1.1098525
C           5.6060350     0.3423660    -0.6599880
H           6.5640569     0.0940661    -1.1076119
C           4.8932452     1.4590087    -1.0999412
H           5.2968444     2.0879153    -1.8890666
C           3.6614562     1.7816188    -0.5246096
H           3.1069867     2.6601150    -0.8409949
C           3.1312909     0.9776561     0.4945891
C           3.8551703    -0.1338888     0.9479519
H           3.4505079    -0.7323983     1.7574887
C           5.0838931    -0.4478981     0.3674480
H           5.6381754    -1.3123492     0.7233396
30
373_C12H16O2_0-16-18-25 (-30,) energy =    -617.3449725
C           0.5310377     0.5876658    -0.7806207
O           1.2956100    -0.4870008    -1.3223416
H           2.2335889    -0.2480551    -1.2602433
H           0.8062090     1.5346191    -1.2704311
C          -0.9406300     0.2678672    -1.0853767
H          -1.5600752     1.1234102    -0.7828157
H          -1.0491322     0.1557899    -2.1700066
C          -1.4056863    -1.0053225    -0.3602135
H          -0.8545062    -1.8620681    -0.7649045
H          -2.4690383    -1.1821766    -0.5645611
C          -1.1638347    -0.9084098     1.1540987
H          -1.4281986    -1.8532186     1.6447295
H          -1.8266648    -0.1407074     1.5813212
C           0.2975221    -0.5441339     1.4714472
H           0.9618956    -1.3545759     1.1487532
H           0.4411218    -0.4030898     2.5487636
C           0.6988175     0.7422516     0.7444902
H           0.0291337     1.5519878     1.0612939
O           2.0000427     1.2012313     1.1993795
C           5.6141421     0.4640442    -0.7583093
H           6.5652952     0.2841015    -1.2510395
C           4.8501624     1.5833967    -1.0936859
H           5.2071735     2.2819189    -1.8458377
C           3.6280499     1.8201342    -0.4600324
H           3.0372572     2.7001894    -0.6950373
C           3.1577876     0.9259353     0.5120929
C           3.9308699    -0.1919852     0.8573294
H           3.5656127    -0.8636355     1.6277538
C           5.1514270    -0.4189379     0.2210131
H           5.7441548    -1.2880145     0.4939618
30
373_C12H16O2_0-16-18-25 (-15,) energy =    -617.3444867
C           0.6154215     0.4530381    -0.7651923
O           1.3227136    -0.7038554    -1.2068071
H           2.2718474    -0.5380239    -1.0907330
H           0.9823645     1.3457425    -1.2936862
C          -0.8604960     0.2246936    -1.1262900
H          -1.4255096     1.1406775    -0.9050806
H          -0.9249849     0.0568594    -2.2072281
C          -1.4583400    -0.9644806    -0.3572015
H          -0.9584071    -1.8832056    -0.6852924
H          -2.5215145    -1.0710529    -0.6063127
C          -1.2805734    -0.7976121     1.1599664
H          -1.6401067    -1.6896772     1.6873692
H          -1.9004792     0.0414152     1.5106029
C           0.1886901    -0.5283041     1.5287333
H           0.8031572    -1.4023147     1.2819695
H           0.2966787    -0.3383813     2.6025528
C           0.7242426     0.6780770     0.7553215
H           0.1069568     1.5551697     0.9931472
O           2.0420278     1.0255853     1.2649886
C           5.6295191     0.5972518    -0.8267695
H           6.5743138     0.4938764    -1.3526076
C           4.8172707     1.7102599    -1.0535484
H           5.1311029     2.4797889    -1.7538856
C           3.6038459     1.8496935    -0.3774765
H           2.9785655     2.7244651    -0.5274757
C           3.1891897     0.8630922     0.5281905
C           4.0096730    -0.2498098     0.7643226
H           3.6848544    -0.9938674     1.4850786
C           5.2232059    -0.3785229     0.0867728
H           5.8531654    -1.2436273     0.2761179
30
373_C12H16O2_0-16-18-25 (0,) energy =    -617.3449854
C           0.6791327     0.3286204    -0.7534301
O           1.3257481    -0.8902311    -1.1154781
H           2.2805902    -0.7724096    -0.9833476
H           1.1215183     1.1687776    -1.3080481
C          -0.7955953     0.1844921    -1.1586608
H          -1.3000091     1.1484984    -1.0046729
H          -0.8330975    -0.0327529    -2.2320373
C          -1.5075423    -0.9165683    -0.3570535
H          -1.0646406    -1.8851847    -0.6169195
H          -2.5654657    -0.9598320    -0.6445752
C          -1.3742824    -0.6809603     1.1552926
H          -1.8207905    -1.5131380     1.7131676
H          -1.9394500     0.2204925     1.4365948
C           0.0972306    -0.5072424     1.5666439
H           0.6506285    -1.4360134     1.3848908
H           0.1844582    -0.2734611     2.6336916
C           0.7573765     0.6100808     0.7588898
H           0.2133378     1.5494209     0.9368687
O           2.0887107     0.8257249     1.3056969
C           5.6461286     0.7305855    -0.8747373
H           6.5839449     0.7095890    -1.4223292
C           4.7743005     1.8126887    -1.0151390
H           5.0353943     2.6403807    -1.6693359
C           3.5701912     1.8478050    -0.3105418
H           2.9019485     2.6996363    -0.3930825
C           3.2234200     0.7851009     0.5358885
C           4.1022631    -0.2977673     0.6845668
H           3.8281172    -1.1008679     1.3619721
C           5.3079146    -0.3202268    -0.0192255
H           5.9839088    -1.1622690     0.1037266
30
373_C12H16O2_0-16-18-25 (15,) energy =    -617.3463623
C           0.6004480     0.6164414    -0.3694585
O           0.9376229    -0.1462346    -1.5269812
H           1.9066975    -0.1858976    -1.5828687
H           1.1076502     1.5907935    -0.4026185
C          -0.9172420     0.8472304    -0.4074380
H          -1.1875219     1.5401994     0.4015802
H          -1.1610966     1.3440242    -1.3532261
C          -1.7064401    -0.4627850    -0.2612390
H          -1.5105699    -1.0938763    -1.1362024
H          -2.7825922    -0.2494407    -0.2536304
C          -1.3010154    -1.2153975     1.0149789
H          -1.8205908    -2.1795963     1.0732309
H          -1.6171725    -0.6380711     1.8969559
C           0.2187007    -1.4394197     1.0685622
H           0.5321123    -2.0926196     0.2460599
H           0.5155493    -1.9236140     2.0057879
C           0.9708918    -0.1166317     0.9337404
H           0.6881328     0.5462195     1.7666575
O           2.3818632    -0.4232118     1.1024564
C           5.4768407     1.2470316    -1.1428108
H           6.2972759     1.6681306    -1.7166403
C           4.6980203     2.0677446    -0.3234141
H           4.9157795     3.1302851    -0.2535332
C           3.6458910     1.5331051     0.4206650
H           3.0570612     2.1637393     1.0800833
C           3.3556822     0.1637392     0.3363669
C           4.1409973    -0.6627658    -0.4795501
H           3.9162906    -1.7247906    -0.5116306
C           5.1981248    -0.1192823    -1.2123234
H           5.8035940    -0.7682293    -1.8395366
30
373_C12H16O2_0-16-18-25 (30,) energy =    -617.3483459
C           0.6079499     0.5234574    -0.4643356
O           0.8660805    -0.3124731    -1.5913160
H           1.8290055    -0.4190695    -1.6616953
H           1.1620776     1.4666091    -0.5666468
C          -0.8952266     0.8322046    -0.4572619
H          -1.0932186     1.5859376     0.3178402
H          -1.1533453     1.2857331    -1.4208730
C          -1.7467601    -0.4196998    -0.1977466
H          -1.6245174    -1.1133910    -1.0381376
H          -2.8084029    -0.1456425    -0.1595580
C          -1.3262131    -1.1144858     1.1059704
H          -1.8973238    -2.0398200     1.2492932
H          -1.5662002    -0.4652393     1.9615385
C           0.1779293    -1.4287148     1.1055538
H           0.4115315    -2.1456932     0.3102672
H           0.4909511    -1.8772255     2.0552398
C           1.0020745    -0.1677894     0.8554084
H           0.8207926     0.5529015     1.6695779
O           2.3902443    -0.5808613     0.9249849
C           5.5168544     1.3529420    -1.0461687
H           6.3450009     1.8399396    -1.5527826
C           4.6747677     2.0880050    -0.2081702
H           4.8506367     3.1497693    -0.0561603
C           3.6115862     1.4694847     0.4499364
H           2.9731438     2.0369005     1.1205144
C           3.3754895     0.1007051     0.2583838
C           4.2220337    -0.6406070    -0.5767241
H           4.0372690    -1.7048608    -0.6910840
C           5.2893893    -0.0132120    -1.2215888
H           5.9428071    -0.5968379    -1.8646636
30
373_C12H16O2_0-16-18-25 (45,) energy =    -617.3506408
C           0.5669683     0.4494421    -0.5700567
O           0.7068154    -0.4371041    -1.6790265
H           1.6395497    -0.7036378    -1.7194724
H           1.1609419     1.3573964    -0.7447550
C          -0.9142767     0.8336826    -0.4724163
H          -1.0189529     1.6256014     0.2827557
H          -1.2200124     1.2640646    -1.4328289
C          -1.8038407    -0.3628614    -0.1028517
H          -1.7792942    -1.0906172    -0.9225731
H          -2.8448624    -0.0332847     0.0030130
C          -1.3217504    -1.0336230     1.1922073
H          -1.9270771    -1.9211683     1.4127689
H          -1.4628332    -0.3432709     2.0375417
C           0.1597933    -1.4299101     1.0946267
H           0.2944087    -2.1859063     0.3127208
H           0.5188736    -1.8626970     2.0352328
C           1.0256615    -0.2241258     0.7376399
H           0.9571909     0.5231319     1.5448571
O           2.3833599    -0.7172312     0.6751317
C           5.5861485     1.4326266    -0.9151571
H           6.4337501     1.9723458    -1.3272538
C           4.6438931     2.0968618    -0.1277943
H           4.7598132     3.1573234     0.0804950
C           3.5523690     1.4119627     0.4082681
H           2.8362542     1.9315865     1.0370801
C           3.3921373     0.0453899     0.1419844
C           4.3390277    -0.6260450    -0.6422339
H           4.2081071    -1.6900552    -0.8172270
C           5.4306808     0.0671912    -1.1638197
H           6.1603095    -0.4636665    -1.7696304
30
373_C12H16O2_0-16-18-25 (60,) energy =    -617.3530175
C           0.4909421     0.4097615    -0.6807822
O           0.5165155    -0.5103296    -1.7702549
H           1.3964022    -0.9219763    -1.7681363
H           1.1022293     1.2903167    -0.9264856
C          -0.9632247     0.8457116    -0.4717382
H          -0.9793624     1.6587772     0.2681761
H          -1.3372481     1.2633713    -1.4135594
C          -1.8533697    -0.3133328     0.0019096
H          -1.9229672    -1.0575692    -0.8000659
H          -2.8704512     0.0516983     0.1908723
C          -1.2816150    -0.9744390     1.2653822
H          -1.8946558    -1.8352727     1.5584433
H          -1.3249832    -0.2627079     2.1036215
C           0.1722881    -1.4254820     1.0513080
H           0.2117558    -2.2031541     0.2800538
H           0.5957759    -1.8512748     1.9679392
C           1.0408194    -0.2554265     0.5952020
H           1.0800513     0.4977253     1.3968474
O           2.3627997    -0.7929746     0.3825850
C           5.6796231     1.4755164    -0.7503513
H           6.5574785     2.0419316    -1.0469276
C           4.6364179     2.0990534    -0.0666630
H           4.7004329     3.1564239     0.1768845
C           3.5016066     1.3815254     0.3196240
H           2.7078620     1.8820309     0.8632369
C           3.4060400     0.0195310     0.0078144
C           4.4542780    -0.6122464    -0.6746070
H           4.3662063    -1.6724363    -0.8929231
C           5.5825545     0.1134529    -1.0478255
H           6.3884674    -0.3886908    -1.5765825
30
373_C12H16O2_0-16-18-25 (75,) energy =    -617.3546263
C           0.3786143     0.4145552    -0.7687736
O           0.3121545    -0.5160963    -1.8460141
H           1.1853179    -0.9405521    -1.8943872
H           0.9683480     1.2924845    -1.0747041
C          -1.0509379     0.8533952    -0.4364631
H          -1.0020986     1.6751045     0.2925564
H          -1.5087056     1.2598896    -1.3456473
C          -1.8926774    -0.3006802     0.1286166
H          -2.0344296    -1.0535610    -0.6555828
H          -2.8886074     0.0660482     0.4060658
C          -1.2069637    -0.9479131     1.3414997
H          -1.7911673    -1.8039160     1.7002964
H          -1.1720840    -0.2262465     2.1716650
C           0.2204832    -1.4053041     0.9999846
H           0.1863900    -2.1906677     0.2362255
H           0.7246048    -1.8244649     1.8780668
C           1.0473743    -0.2419398     0.4547757
H           1.1806844     0.5082244     1.2464701
O           2.3287692    -0.7882930     0.0862724
C           5.7791077     1.4678711    -0.5784247
H           6.6924020     2.0278589    -0.7563507
C           4.6570328     2.0988547    -0.0460162
H           4.6909697     3.1581117     0.1953785
C           3.4735001     1.3909596     0.1856763
H           2.6174233     1.9091864     0.6013958
C           3.4149951     0.0264242    -0.1220577
C           4.5426526    -0.6130691    -0.6574723
H           4.4775971    -1.6734215    -0.8822737
C           5.7130041     0.1042789    -0.8816219
H           6.5788769    -0.4053819    -1.2960491
30
373_C12H16O2_0-16-18-25 (90,) energy =    -617.3549839
C           0.2450495     0.4383429    -0.8541886
O           0.1056415    -0.4910362    -1.9240999
H           0.9856473    -0.8833466    -2.0560538
H           0.7872535     1.3304774    -1.2076743
C          -1.1577317     0.8455081    -0.3937247
H          -1.0610704     1.6684026     0.3292275
H          -1.7052904     1.2411888    -1.2568883
C          -1.9184742    -0.3263429     0.2446516
H          -2.1136635    -1.0837541    -0.5235910
H          -2.8931978     0.0181719     0.6114647
C          -1.1105450    -0.9551360     1.3899501
H          -1.6407564    -1.8222342     1.8021232
H          -1.0150627    -0.2303035     2.2126306
C           0.2890277    -1.3826930     0.9186755
H           0.2011642    -2.1698589     0.1610853
H           0.8797911    -1.7902364     1.7469142
C           1.0406233    -0.2039117     0.2991765
H           1.2456254     0.5458767     1.0738928
O           2.2834373    -0.7248035    -0.2130303
C           5.8610007     1.4191353    -0.3935888
H           6.8062168     1.9510546    -0.4480574
C           4.6925423     2.0927020    -0.0455192
H           4.7204082     3.1576330     0.1704222
C           3.4676285     1.4215258     0.0255824
H           2.5733670     1.9765022     0.2836083
C           3.4163254     0.0499812    -0.2502644
C           4.5901234    -0.6318219    -0.6035233
H           4.5280134    -1.6958313    -0.8105980
C           5.7999120     0.0503622    -0.6746279
H           6.7016461    -0.4916371    -0.9473930
30
373_C12H16O2_0-16-18-25 (105,) energy =    -617.3546128
C           0.1100685     0.4671607    -0.9323894
O          -0.0715441    -0.4720899    -1.9865021
H           0.8159987    -0.8079777    -2.1998288
H           0.5841063     1.3814949    -1.3278166
C          -1.2683074     0.8148058    -0.3628760
H          -1.1516737     1.6492566     0.3436920
H          -1.9012769     1.1752992    -1.1819012
C          -1.9198446    -0.3825588     0.3450822
H          -2.1398046    -1.1584161    -0.3977252
H          -2.8773304    -0.0785032     0.7856608
C          -0.9939170    -0.9578529     1.4273461
H          -1.4490529    -1.8410305     1.8918975
H          -0.8641648    -0.2169652     2.2308631
C           0.3798336    -1.3303129     0.8457675
H           0.2645558    -2.1307863     0.1059882
H           1.0543571    -1.7010301     1.6262385
C           1.0262711    -0.1299220     0.1518105
H           1.2728339     0.6377127     0.8949540
O           2.2358307    -0.5998568    -0.4827556
C           5.9185893     1.3457671    -0.2171126
H           6.8892299     1.8292964    -0.1576695
C           4.7512511     2.0816545    -0.0211401
H           4.8073412     3.1472494     0.1857865
C           3.4961056     1.4715508    -0.0990409
H           2.6009941     2.0701946     0.0295294
C           3.4113123     0.0995335    -0.3644844
C           4.5819366    -0.6439300    -0.5667378
H           4.4919677    -1.7062803    -0.7715707
C           5.8244564    -0.0211172    -0.4956268
H           6.7250236    -0.6093439    -0.6513846
30
373_C12H16O2_0-16-18-25 (120,) energy =    -617.3541738
C           0.1215724     0.0320419    -1.1918461
O           0.0410094    -1.2463602    -1.8132444
H           0.9576022    -1.5642556    -1.8804845
H           0.5611004     0.7620360    -1.8920470
C          -1.2975345     0.4684291    -0.8171495
H          -1.2631256     1.5166667    -0.4872835
H          -1.9193280     0.4368470    -1.7192525
C          -1.8979342    -0.4092584     0.2916463
H          -2.0335300    -1.4267199    -0.0938291
H          -2.8916100    -0.0344175     0.5662741
C          -0.9840450    -0.4474277     1.5259268
H          -1.4016853    -1.1113546     2.2925501
H          -0.9358346     0.5554867     1.9769287
C           0.4341675    -0.9127287     1.1551346
H           0.4016760    -1.9452574     0.7883178
H           1.0968493    -0.9002791     2.0289940
C           1.0267479    -0.0377202     0.0507339
H           1.1918452     0.9827295     0.4160044
O           2.2827919    -0.6031766    -0.3895660
C           5.9365354     1.3876199    -0.0801743
H           6.8977769     1.8885342    -0.0123470
C           4.9616168     1.5985760     0.8947109
H           5.1636838     2.2604418     1.7328958
C           3.7236377     0.9564824     0.8194359
H           2.9883174     1.1072795     1.6031220
C           3.4525784     0.1015674    -0.2560029
C           4.4296982    -0.1172999    -1.2348306
H           4.2018227    -0.7872800    -2.0583323
C           5.6642862     0.5206406    -1.1417488
H           6.4142475     0.3446320    -1.9084511
30
373_C12H16O2_0-16-18-25 (135,) energy =    -617.3548622
C           0.0074963     0.0324268    -1.2596647
O          -0.0589796    -1.2677710    -1.8362522
H           0.8624839    -1.5392260    -1.9857532
H           0.3579161     0.7583212    -2.0118720
C          -1.3989230     0.4150176    -0.7905660
H          -1.3909809     1.4745402    -0.4973214
H          -2.0838793     0.3231773    -1.6413050
C          -1.8721240    -0.4503847     0.3872817
H          -1.9880704    -1.4854435     0.0444773
H          -2.8591167    -0.1114064     0.7252832
C          -0.8673454    -0.4063722     1.5484698
H          -1.1941617    -1.0631220     2.3637923
H          -0.8328173     0.6118586     1.9650813
C           0.5390551    -0.8195946     1.0829088
H           0.5266654    -1.8623035     0.7450303
H           1.2625061    -0.7543041     1.9045022
C           1.0049034     0.0474914    -0.0883536
H           1.1416523     1.0882679     0.2308252
O           2.2459274    -0.4561434    -0.6253655
C           5.9710438     1.2840882     0.0782366
H           6.9509018     1.7222700     0.2434256
C           4.9269347     1.5383726     0.9659025
H           5.0907499     2.1726982     1.8332549
C           3.6622079     0.9782899     0.7663762
H           2.8719601     1.1696227     1.4840377
C           3.4377486     0.1598135    -0.3473193
C           4.4856987    -0.1026539    -1.2402324
H           4.2915779    -0.7416866    -2.0963104
C           5.7421549     0.4552766    -1.0242005
H           6.5455165     0.2460488    -1.7257165
30
373_C12H16O2_0-16-18-25 (150,) energy =    -617.3554986
C          -0.0961512     0.0525945    -1.3083204
O          -0.1139871    -1.2592691    -1.8619956
H           0.8101060    -1.4714913    -2.0760812
H           0.1553163     0.7860589    -2.0917965
C          -1.4908166     0.3503139    -0.7515088
H          -1.5325725     1.4121895    -0.4699179
H          -2.2219168     0.2027977    -1.5545447
C          -1.8293095    -0.5263141     0.4640218
H          -1.9028330    -1.5713204     0.1403977
H          -2.8107980    -0.2439772     0.8644525
C          -0.7540347    -0.4035670     1.5542017
H          -0.9820439    -1.0697638     2.3950724
H          -0.7577412     0.6198073     1.9596449
C           0.6419572    -0.7318155     0.9980715
H           0.6712623    -1.7749168     0.6626976
H           1.4101627    -0.6184383     1.7716086
C           0.9715341     0.1551157    -0.2058571
H           1.0508916     1.2081129     0.0957187
O           2.1997723    -0.2561063    -0.8350379
C           5.9841987     1.1504128     0.2158247
H           6.9804074     1.5027607     0.4663570
C           4.8911544     1.5047280     1.0035505
H           5.0315696     2.1352870     1.8777469
C           3.6035092     1.0561131     0.6938957
H           2.7740001     1.3363986     1.3326434
C           3.4083949     0.2428522    -0.4289102
C           4.5061410    -0.1189365    -1.2233681
H           4.3332207    -0.7504288    -2.0895231
C           5.7813937     0.3323546    -0.9002107
H           6.6220650     0.0453164    -1.5264595
30
373_C12H16O2_0-16-18-25 (165,) energy =    -617.3555265
C          -0.1760705     0.1052812    -1.3301921
O          -0.1160623    -1.2038183    -1.8865712
H           0.8110219    -1.3415985    -2.1440592
H          -0.0263684     0.8559665    -2.1233257
C          -1.5592670     0.2897857    -0.7008348
H          -1.6712779     1.3445723    -0.4121017
H          -2.3164117     0.0847978    -1.4662121
C          -1.7637405    -0.6131535     0.5251983
H          -1.7743722    -1.6598180     0.1988262
H          -2.7408485    -0.4081416     0.9797450
C          -0.6430995    -0.4114318     1.5561276
H          -0.7719796    -1.0974038     2.4020933
H          -0.7038608     0.6065632     1.9704288
C           0.7419556    -0.6271680     0.9227993
H           0.8303545    -1.6610602     0.5697560
H           1.5374965    -0.4654062     1.6580769
C           0.9359587     0.2963470    -0.2844992
H           0.9375276     1.3503931     0.0272673
O           2.1535486     0.0033631    -0.9943557
C           5.9781768     0.9994383     0.3420048
H           6.9848920     1.2484990     0.6642718
C           4.8732234     1.5000082     1.0274985
H           5.0142543     2.1451799     1.8908394
C           3.5720648     1.1857754     0.6239839
H           2.7304359     1.5898702     1.1745355
C           3.3761005     0.3548208    -0.4855855
C           4.4848308    -0.1520087    -1.1783508
H           4.3115136    -0.7930512    -2.0374186
C           5.7733470     0.1711038    -0.7658340
H           6.6232219    -0.2283680    -1.3130014
30
373_C12H16O2_0-16-18-25 (180,) energy =    -617.3546931
C          -0.2268471     0.1495667    -1.3497206
O          -0.0564722    -1.1461465    -1.9127883
H           0.8743171    -1.1918898    -2.1897051
H          -0.1743645     0.9119825    -2.1442183
C          -1.6017585     0.2004131    -0.6793189
H          -1.8022153     1.2383377    -0.3775693
H          -2.3592719    -0.0687742    -1.4241608
C          -1.6839116    -0.7253394     0.5435303
H          -1.6103594    -1.7665720     0.2081411
H          -2.6599287    -0.6127143     1.0315430
C          -0.5524458    -0.4281825     1.5384217
H          -0.5878024    -1.1296836     2.3807452
H          -0.6934157     0.5763418     1.9658356
C           0.8258978    -0.5087908     0.8599746
H           0.9957034    -1.5260552     0.4885055
H           1.6231187    -0.2863497     1.5762668
C           0.8948510     0.4454194    -0.3377841
H           0.8025025     1.4902874    -0.0067054
O           2.1070372     0.2891750    -1.1042292
C           5.9464338     0.8336132     0.4338227
H           6.9561412     0.9702984     0.8096814
C           4.8745854     1.4900805     1.0377948
H           5.0466183     2.1462665     1.8870789
C           3.5716638     1.3221458     0.5627079
H           2.7516347     1.8515367     1.0358414
C           3.3383372     0.4769562    -0.5287169
C           4.4114952    -0.1835588    -1.1397709
H           4.2095854    -0.8305576    -1.9881174
C           5.7061386    -0.0014756    -0.6608325
H           6.5307781    -0.5194349    -1.1434945
