30
373_C12H16O2_16-18-25-26 (-165,) energy =    -617.3553220
C          -0.0660540     0.0151442    -1.2973158
O          -0.0996504    -1.3107923    -1.8154791
H           0.8235407    -1.5448383    -2.0099964
H           0.2132013     0.7218753    -2.0958382
C          -1.4643845     0.3549622    -0.7748352
H          -1.4897402     1.4245927    -0.5221844
H          -2.1836063     0.2004714    -1.5872775
C          -1.8428376    -0.4821072     0.4565433
H          -1.9339074    -1.5333890     0.1587113
H          -2.8245238    -0.1682755     0.8322607
C          -0.7836001    -0.3541639     1.5615958
H          -1.0399197    -0.9938809     2.4147950
H          -0.7721825     0.6790641     1.9410585
C           0.6140740    -0.7255135     1.0377591
H           0.6251977    -1.7760328     0.7252892
H           1.3705541    -0.6139764     1.8228817
C           0.9852777     0.1268115    -0.1796500
H           1.0848613     1.1843300     0.0995539
O           2.2166253    -0.3257128    -0.7758175
C           5.9807994     1.1943058     0.1842388
H           6.9711337     1.5773510     0.4120344
C           4.9081570     1.4632790     1.0319499
H           5.0593050     2.0570610     1.9297802
C           3.6287560     0.9740972     0.7520815
H           2.8139393     1.1862879     1.4346742
C           3.4213049     0.2061834    -0.4000772
C           4.4967142    -0.0637592    -1.2584200
H           4.3128035    -0.6555145    -2.1499790
C           5.7654732     0.4243677    -0.9630373
H           6.5897836     0.2073973    -1.6373987
30
373_C12H16O2_16-18-25-26 (-150,) energy =    -617.3546792
C           0.0159196    -0.0321361    -1.2564201
O          -0.0604643    -1.3599271    -1.7645776
H           0.8592729    -1.6480922    -1.8925280
H           0.3782659     0.6496434    -2.0435406
C          -1.3889408     0.3897144    -0.8178698
H          -1.3692992     1.4618733    -0.5754018
H          -2.0686008     0.2660990    -1.6688363
C          -1.8815040    -0.4121596     0.3961896
H          -2.0085745    -1.4609013     0.1025643
H          -2.8660754    -0.0448252     0.7108398
C          -0.8833736    -0.3247895     1.5603594
H          -1.2220799    -0.9394851     2.4032138
H          -0.8402562     0.7112603     1.9295520
C           0.5215135    -0.7742663     1.1243380
H           0.4992431    -1.8310456     0.8339909
H           1.2372623    -0.6822486     1.9499064
C           1.0082793     0.0324932    -0.0821328
H           1.1632800     1.0844800     0.1902475
O           2.2458045    -0.5129149    -0.5899571
C           5.9547621     1.2790552     0.0680757
H           6.9294987     1.7326464     0.2219062
C           4.9515458     1.4221499     1.0259024
H           5.1431660     1.9858307     1.9353038
C           3.6954545     0.8394441     0.8402804
H           2.9331179     0.9439115     1.6048352
C           3.4387014     0.1096262    -0.3266179
C           4.4406868    -0.0316165    -1.2952477
H           4.2185014    -0.5948146    -2.1965281
C           5.6917237     0.5446713    -1.0917534
H           6.4618752     0.4279864    -1.8497283
30
373_C12H16O2_16-18-25-26 (-135,) energy =    -617.3538654
C           0.1479744    -0.0507458    -1.1958238
O           0.0523562    -1.3677085    -1.7281379
H           0.9648432    -1.7023926    -1.7645744
H           0.6057753     0.6218516    -1.9404612
C          -1.2670485     0.4338150    -0.8680615
H          -1.2174895     1.5012360    -0.6093186
H          -1.8798188     0.3517272    -1.7731970
C          -1.8944018    -0.3562795     0.2903491
H          -2.0455107    -1.3947630    -0.0272804
H          -2.8832992     0.0543455     0.5287847
C          -0.9922467    -0.3271450     1.5333269
H          -1.4283565    -0.9302600     2.3389381
H          -0.9298664     0.7030532     1.9159591
C           0.4207376    -0.8406638     1.2088693
H           0.3729446    -1.8941142     0.9093890
H           1.0731889    -0.7843779     2.0887382
C           1.0421226    -0.0508968     0.0565201
H           1.2323789     0.9866252     0.3583775
O           2.2933400    -0.6681425    -0.3349235
C           5.9123749     1.3910838    -0.0737823
H           6.8624246     1.9142299    -0.0155916
C           5.0160352     1.4404821     0.9949993
H           5.2691122     1.9983212     1.8928753
C           3.7950781     0.7669972     0.9316420
H           3.1129868     0.7885620     1.7760400
C           3.4626961     0.0445275    -0.2206559
C           4.3547103    -0.0031690    -1.2971119
H           4.0747807    -0.5659450    -2.1824430
C           5.5775213     0.6614830    -1.2169410
H           6.2655423     0.6174556    -2.0571567
30
373_C12H16O2_16-18-25-26 (-120,) energy =    -617.3534947
C           0.4194406     0.0348673    -1.0132159
O           0.3701446    -1.2101761    -1.7034278
H           1.2352275    -1.6280392    -1.5496360
H           1.0188184     0.7586511    -1.5908477
C          -1.0121139     0.5581870    -0.8660147
H          -0.9681425     1.5846531    -0.4743857
H          -1.4664687     0.6152208    -1.8619889
C          -1.8537215    -0.3241491     0.0683863
H          -1.9871591    -1.3079602    -0.3968070
H          -2.8529888     0.1110824     0.1926773
C          -1.1735793    -0.4928012     1.4357237
H          -1.7603225    -1.1627044     2.0759654
H          -1.1413875     0.4792978     1.9508905
C           0.2556311    -1.0411250     1.2870181
H           0.2223393    -2.0497603     0.8586373
H           0.7555846    -1.1182860     2.2596000
C           1.0856192    -0.1552356     0.3609694
H           1.2463870     0.8282820     0.8215392
O           2.3670962    -0.8035173     0.1584808
C           5.7940698     1.5179044    -0.3930221
H           6.6953708     2.1068627    -0.5368170
C           5.0673356     1.6249294     0.7949991
H           5.4057026     2.2934568     1.5822532
C           3.9125846     0.8668001     0.9887057
H           3.3599686     0.9280082     1.9217828
C           3.4740695     0.0018123    -0.0204879
C           4.1971723    -0.1087554    -1.2110682
H           3.8443483    -0.7882383    -1.9813409
C           5.3576591     0.6449678    -1.3912574
H           5.9167761     0.5531268    -2.3186027
30
373_C12H16O2_16-18-25-26 (-105,) energy =    -617.3532516
C           0.4902318     0.0040480    -0.9862742
O           0.4874777    -1.2612843    -1.6422048
H           1.3212067    -1.6914169    -1.3831697
H           1.1136019     0.7152801    -1.5529907
C          -0.9495116     0.5234687    -0.9319797
H          -0.9301862     1.5624214    -0.5724266
H          -1.3496529     0.5461783    -1.9523373
C          -1.8371283    -0.3319916    -0.0160060
H          -1.9405029    -1.3318139    -0.4540657
H          -2.8435879     0.1009188     0.0389738
C          -1.2307818    -0.4495227     1.3905781
H          -1.8490489    -1.0986256     2.0225523
H          -1.2276105     0.5403331     1.8716695
C           0.2048799    -0.9977521     1.3365772
H           0.1950410    -2.0213571     0.9436525
H           0.6531559    -1.0392615     2.3360036
C           1.0840321    -0.1441338     0.4255337
H           1.2313771     0.8525545     0.8640209
O           2.3715042    -0.8076520     0.3223762
C           5.7423405     1.5328723    -0.4530545
H           6.6283699     2.1292290    -0.6514325
C           5.1702923     1.5289537     0.8215696
H           5.6134834     2.1193329     1.6191916
C           4.0359015     0.7604239     1.0828820
H           3.5938931     0.7334792     2.0747246
C           3.4669401    -0.0044670     0.0595398
C           4.0330364    -0.0029399    -1.2177303
H           3.5776985    -0.6037142    -1.9996376
C           5.1727940     0.7631302    -1.4689033
H           5.6124357     0.7596555    -2.4627225
30
373_C12H16O2_16-18-25-26 (-90,) energy =    -617.3528379
C           0.5319843    -0.0187251    -0.9737477
O           0.6030425    -1.3046024    -1.5856123
H           1.4111118    -1.7183905    -1.2340567
H           1.1490723     0.6957855    -1.5416130
C          -0.9247830     0.4550832    -0.9979906
H          -0.9506077     1.5098234    -0.6880387
H          -1.2822605     0.4186822    -2.0337049
C          -1.8248983    -0.3820922    -0.0785448
H          -1.8801717    -1.4052910    -0.4691493
H          -2.8450885     0.0210426    -0.0866190
C          -1.2732990    -0.4096596     1.3544551
H          -1.8992916    -1.0415707     1.9962014
H          -1.3134000     0.6035941     1.7820523
C           0.1753358    -0.9225908     1.3822199
H           0.2035479    -1.9648516     1.0420206
H           0.5855413    -0.9044834     2.3984007
C           1.0756821    -0.0974879     0.4641526
H           1.1972156     0.9198057     0.8623851
O           2.3712811    -0.7546999     0.4566246
C           5.7425735     1.5268934    -0.4820646
H           6.6284182     2.1090903    -0.7197128
C           5.3223097     1.3986045     0.8438715
H           5.8821218     1.8792514     1.6418173
C           4.1865736     0.6493925     1.1526875
H           3.8526708     0.5287834     2.1790145
C           3.4687644     0.0247606     0.1290153
C           3.8853464     0.1469490    -1.1999951
H           3.3246861    -0.3551586    -1.9828494
C           5.0232671     0.8980538    -1.5001286
H           5.3475442     0.9889344    -2.5333623
30
373_C12H16O2_16-18-25-26 (-75,) energy =    -617.3533794
C           0.0548281    -0.8651245    -1.3241199
O           0.1666706    -2.2520223    -1.0191285
H           1.1188386    -2.4488050    -1.0297466
H           0.3181713    -0.6930807    -2.3807328
C          -1.3951789    -0.4399714    -1.0780596
H          -1.5281675     0.5797227    -1.4668207
H          -2.0510640    -1.0944116    -1.6636240
C          -1.7684684    -0.4835304     0.4116558
H          -1.7515425    -1.5254946     0.7528632
H          -2.7932833    -0.1169898     0.5493082
C          -0.7875756     0.3458306     1.2541131
H          -1.0377075     0.2711033     2.3194371
H          -0.8820206     1.4093633     0.9871557
C           0.6631810    -0.1133287     1.0287768
H           0.7779840    -1.1510650     1.3637854
H           1.3627098     0.4998154     1.6088857
C           1.0261406    -0.0514572    -0.4564628
H           1.0213751     0.9933427    -0.8011178
O           2.3291463    -0.6252798    -0.7181376
C           5.7529762     1.4886412     0.3900590
H           6.6546231     2.0262385     0.6696291
C           5.3572067     0.3596577     1.1099522
H           5.9502877     0.0150995     1.9529788
C           4.1984606    -0.3328172     0.7546085
H           3.8787092    -1.2152203     1.3003046
C           3.4347411     0.1058040    -0.3298895
C           3.8337320     1.2271238    -1.0645306
H           3.2453590     1.5393727    -1.9226154
C           4.9884112     1.9184954    -0.6972143
H           5.2974201     2.7887763    -1.2702208
30
373_C12H16O2_16-18-25-26 (-60,) energy =    -617.3538159
C           0.0804411    -0.9594994    -1.2989582
O           0.1983496    -2.3112026    -0.8660457
H           1.1520634    -2.4986862    -0.8430468
H           0.3555339    -0.8831448    -2.3637886
C          -1.3755644    -0.5254390    -1.1099034
H          -1.5111822     0.4533186    -1.5918696
H          -2.0192639    -1.2360319    -1.6409303
C          -1.7673243    -0.4362763     0.3730923
H          -1.7463610    -1.4426457     0.8079747
H          -2.7967311    -0.0681851     0.4643975
C          -0.8042084     0.4753748     1.1485480
H          -1.0667748     0.4941899     2.2133110
H          -0.9052004     1.5096266     0.7859410
C           0.6530868     0.0126738     0.9822128
H           0.7750829    -0.9881315     1.4130572
H           1.3410621     0.6839589     1.5095578
C           1.0328197    -0.0588481    -0.4984353
H           1.0160248     0.9481436    -0.9391551
O           2.3417527    -0.6436389    -0.6844857
C           5.7874386     1.4390578     0.4158878
H           6.6959280     1.9649267     0.6952479
C           5.5031809     0.1860710     0.9626691
H           6.1899687    -0.2682965     1.6719410
C           4.3342742    -0.4886389     0.6097587
H           4.0956837    -1.4619238     1.0275751
C           3.4470374     0.0877073    -0.3034091
C           3.7328060     1.3363141    -0.8669344
H           3.0562426     1.7691079    -1.5978018
C           4.8982524     2.0088840    -0.4978682
H           5.1167986     2.9783488    -0.9379723
30
373_C12H16O2_16-18-25-26 (-45,) energy =    -617.3542398
C           0.0843016    -1.0614099    -1.2371720
O           0.2249010    -2.3508722    -0.6501486
H           1.1818278    -2.5159090    -0.6034867
H           0.3619501    -1.1034993    -2.3031771
C          -1.3798931    -0.6352002    -1.1015510
H          -1.5311639     0.2803586    -1.6909970
H          -2.0085884    -1.4127283    -1.5502969
C          -1.7783757    -0.3875110     0.3614766
H          -1.7400316    -1.3381460     0.9065217
H          -2.8147082    -0.0309787     0.4097800
C          -0.8350947     0.6234058     1.0310205
H          -1.1002836     0.7546322     2.0871418
H          -0.9560915     1.6089666     0.5562356
C           0.6320068     0.1757013     0.9182766
H           0.7742646    -0.7677372     1.4583433
H           1.3032751     0.9161671     1.3682166
C           1.0161635    -0.0540389    -0.5452992
H           0.9703166     0.8926459    -1.1018869
O           2.3337884    -0.6305188    -0.6711688
C           5.8023438     1.4002951     0.4538150
H           6.7187119     1.9087792     0.7391614
C           5.6167360     0.0514612     0.7659085
H           6.3899283    -0.4966965     1.2977898
C           4.4380979    -0.6003092     0.4074274
H           4.2763967    -1.6469581     0.6467943
C           3.4359713     0.0941575    -0.2783066
C           3.6200643     1.4423887    -0.6062430
H           2.8562566     1.9831072    -1.1556855
C           4.7995529     2.0881484    -0.2308900
H           4.9352048     3.1358566    -0.4865122
30
373_C12H16O2_16-18-25-26 (-30,) energy =    -617.3549318
C           0.1066943    -1.1240807    -1.1822489
O           0.2225765    -2.3697662    -0.5028335
H           1.1764873    -2.5358180    -0.4163628
H           0.4179848    -1.2407718    -2.2332241
C          -1.3592098    -0.6865616    -1.1239689
H          -1.4875054     0.1865385    -1.7795454
H          -1.9762086    -1.4919198    -1.5385065
C          -1.8035798    -0.3383773     0.3048575
H          -1.7870626    -1.2494597     0.9146500
H          -2.8392542     0.0231298     0.2951148
C          -0.8777212     0.7137148     0.9337359
H          -1.1753838     0.9167420     1.9696178
H          -0.9798615     1.6651257     0.3898009
C           0.5907167     0.2572264     0.8988105
H           0.7118119    -0.6489709     1.5037250
H           1.2485064     1.0241738     1.3226249
C           1.0207008    -0.0716398    -0.5333227
H           0.9947182     0.8320109    -1.1587401
O           2.3369718    -0.6578489    -0.5822289
C           5.8358358     1.3798119     0.4290571
H           6.7607001     1.8887231     0.6844198
C           5.7266294    -0.0063316     0.5692382
H           6.5704536    -0.5847111     0.9361780
C           4.5385397    -0.6579444     0.2484517
H           4.4385502    -1.7338944     0.3548997
C           3.4430362     0.0739663    -0.2261448
C           3.5465066     1.4618117    -0.3777993
H           2.7108798     2.0425589    -0.7531205
C           4.7414458     2.1034796    -0.0434445
H           4.8121877     3.1817155    -0.1610370
30
373_C12H16O2_16-18-25-26 (-15,) energy =    -617.3554518
C           0.1404794    -1.1592247    -1.1251889
O           0.2003352    -2.3841105    -0.4018682
H           1.1451780    -2.5663343    -0.2645195
H           0.5093255    -1.3131469    -2.1524372
C          -1.3201898    -0.7027371    -1.1644368
H          -1.3984021     0.1512868    -1.8522351
H          -1.9235283    -1.5128589    -1.5896253
C          -1.8410867    -0.3047729     0.2251262
H          -1.8732484    -1.1964652     0.8623122
H          -2.8689964     0.0696627     0.1440909
C          -0.9378734     0.7545394     0.8744531
H          -1.2909822     0.9927446     1.8851282
H          -0.9957190     1.6901608     0.2975049
C           0.5234570     0.2783980     0.9369107
H           0.5953712    -0.6133145     1.5703253
H           1.1668988     1.0462088     1.3804820
C           1.0309899    -0.0971424    -0.4584441
H           1.0554863     0.7853948    -1.1129214
O           2.3381818    -0.6985061    -0.4095763
C           5.8764834     1.3806797     0.3425872
H           6.8128333     1.8966149     0.5334367
C           5.8150419    -0.0154180     0.3901506
H           6.7065339    -0.5940315     0.6176887
C           4.6155989    -0.6781333     0.1503782
H           4.5535381    -1.7616420     0.1835938
C           3.4552329     0.0507615    -0.1460046
C           3.5090470     1.4487096    -0.1984772
H           2.6246006     2.0325626    -0.4262904
C           4.7204813     2.1011243     0.0485451
H           4.7510514     3.1869103     0.0075096
30
373_C12H16O2_16-18-25-26 (0,) energy =    -617.3555836
C          -0.3666604     0.9569870    -0.5106674
O          -0.5532098     0.6496217    -1.8883464
H           0.2961594     0.8383920    -2.3215961
H          -0.2594550     2.0464104    -0.3815031
C          -1.5982093     0.4662368     0.2548969
H          -1.5369761     0.8401698     1.2868698
H          -2.4882686     0.9182659    -0.1974502
C          -1.7057366    -1.0662542     0.2589326
H          -1.8889257    -1.4129994    -0.7649923
H          -2.5670935    -1.3776414     0.8626306
C          -0.4185281    -1.7117495     0.7935469
H          -0.4887188    -2.8051619     0.7444070
H          -0.2937074    -1.4565855     1.8570070
C           0.8123019    -1.2373022     0.0024897
H           0.7252073    -1.5540579    -1.0432057
H           1.7302644    -1.6834444     0.4010049
C           0.9147252     0.2911340     0.0196252
H           1.0961347     0.6589187     1.0389332
O           1.9601931     0.7600542    -0.8515178
C           6.0037924     0.9127271     0.1635162
H           7.0618130     0.9661093     0.4024459
C           5.5369721     1.3316393    -1.0865346
H           6.2325785     1.7159988    -1.8279460
C           4.1824899     1.2632036    -1.3944574
H           3.8053318     1.5879038    -2.3594854
C           3.2692595     0.7719114    -0.4500344
C           3.7283834     0.3474567     0.8025685
H           3.0439994    -0.0430230     1.5466040
C           5.0930874     0.4240395     1.0975392
H           5.4389123     0.0914259     2.0728908
30
373_C12H16O2_16-18-25-26 (15,) energy =    -617.3553440
C          -0.3049571     0.9176073    -0.5568852
O          -0.5316860     0.5772865    -1.9208646
H           0.3186568     0.7076876    -2.3734171
H          -0.1315788     2.0023885    -0.4658713
C          -1.5508698     0.5265023     0.2421579
H          -1.4505355     0.9293007     1.2601323
H          -2.4201128     1.0158845    -0.2118641
C          -1.7488562    -0.9958927     0.2995646
H          -1.9703012    -1.3648985    -0.7088941
H          -2.6164063    -1.2348296     0.9269627
C          -0.4931315    -1.6990219     0.8364628
H          -0.6287577    -2.7873197     0.8263821
H          -0.3355045    -1.4158748     1.8884443
C           0.7496627    -1.3249156     0.0110180
H           0.6254509    -1.6697048    -1.0219613
H           1.6469818    -1.8125370     0.4086337
C           0.9442922     0.1939982    -0.0249305
H           1.1707094     0.5827473     0.9769968
O           2.0045823     0.5612479    -0.9289188
C           5.9921754     1.0413736     0.1978325
H           7.0359555     1.1761977     0.4656602
C           5.5099001     1.5055535    -1.0299292
H           6.1786104     2.0076098    -1.7242451
C           4.1725616     1.3363266    -1.3735293
H           3.7831820     1.6969898    -2.3207341
C           3.2945500     0.6938930    -0.4889332
C           3.7712794     0.2173867     0.7382202
H           3.1143630    -0.2972371     1.4299377
C           5.1164186     0.4008907     1.0720856
H           5.4764490     0.0284889     2.0277088
30
373_C12H16O2_16-18-25-26 (30,) energy =    -617.3547715
C          -0.2171252     0.8802242    -0.5757356
O          -0.4780276     0.5300349    -1.9308924
H           0.3780911     0.5843356    -2.3884801
H           0.0319703     1.9520976    -0.5074093
C          -1.4803512     0.5929987     0.2401040
H          -1.3431369     1.0071584     1.2492319
H          -2.3174256     1.1332158    -0.2168564
C          -1.7828857    -0.9104278     0.3285053
H          -2.0339582    -1.2826443    -0.6718146
H          -2.6617379    -1.0770035     0.9634739
C          -0.5759807    -1.6876075     0.8748647
H          -0.7866334    -2.7639098     0.8881601
H          -0.3934599    -1.3943003     1.9199652
C           0.6856401    -1.4180648     0.0372529
H           0.5368058    -1.7836916    -0.9853580
H           1.5509044    -1.9521838     0.4473773
C           0.9843940     0.0813198    -0.0409484
H           1.2576666     0.4759887     0.9462400
O           2.0619738     0.3361487    -0.9684830
C           5.9697661     1.1730202     0.2266733
H           6.9930154     1.3963090     0.5140972
C           5.4491091     1.6640575    -0.9739715
H           6.0665850     2.2758867    -1.6263996
C           4.1357276     1.3844397    -1.3417615
H           3.7151586     1.7655551    -2.2673524
C           3.3264461     0.6006340    -0.5093024
C           3.8452324     0.0919520     0.6876021
H           3.2378720    -0.5368638     1.3295342
C           5.1612893     0.3899893     1.0497234
H           5.5552904    -0.0068125     1.9818166
30
373_C12H16O2_16-18-25-26 (45,) energy =    -617.3540131
C          -0.0973123     0.8410574    -0.5865447
O          -0.3801474     0.5043233    -1.9405870
H           0.4829938     0.4643924    -2.3869643
H           0.2409507     1.8889473    -0.5241994
C          -1.3837066     0.6679043     0.2255084
H          -1.2160879     1.0763686     1.2324181
H          -2.1707454     1.2732956    -0.2387568
C          -1.8119983    -0.8040561     0.3233045
H          -2.0886663    -1.1618640    -0.6754967
H          -2.7047039    -0.8910761     0.9548626
C          -0.6772779    -1.6751562     0.8829453
H          -0.9779232    -2.7297203     0.9053615
H          -0.4756042    -1.3877885     1.9261691
C           0.6066098    -1.5208564     0.0501973
H           0.4342576    -1.8878112    -0.9683203
H           1.4250142    -2.1160314     0.4732405
C           1.0302084    -0.0542771    -0.0433177
H           1.3401044     0.3216985     0.9398167
O           2.1342671     0.0769779    -0.9714320
C           5.9212506     1.3317336     0.2474917
H           6.9136991     1.6582882     0.5442615
C           5.3410363     1.8162532    -0.9273157
H           5.8803128     2.5255795    -1.5496214
C           4.0645853     1.4050144    -1.3069394
H           3.5976825     1.7783097    -2.2133455
C           3.3598910     0.4941404    -0.5124294
C           3.9425272    -0.0106593     0.6564504
H           3.4113950    -0.7407019     1.2592815
C           5.2157625     0.4197704     1.0337421
H           5.6612941     0.0261461     1.9436636
30
373_C12H16O2_16-18-25-26 (60,) energy =    -617.3535805
C           0.2009154     0.7724029    -0.4589996
O          -0.0752376     0.6107765    -1.8467251
H           0.7734278     0.3654184    -2.2543801
H           0.7207473     1.7306928    -0.2901929
C          -1.1306457     0.7724049     0.2972092
H          -0.9361421     1.0499282     1.3432138
H          -1.7721569     1.5536292    -0.1268070
C          -1.8252650    -0.5964696     0.2383138
H          -2.1174182    -0.8022572    -0.7982181
H          -2.7463788    -0.5734046     0.8336340
C          -0.8962122    -1.7129375     0.7392000
H          -1.3865564    -2.6897936     0.6482956
H          -0.6927822    -1.5664779     1.8109314
C           0.4314612    -1.7272722    -0.0369980
H           0.2420155    -1.9657659    -1.0901802
H           1.1113053    -2.4945518     0.3516728
C           1.1168668    -0.3643339     0.0284214
H           1.4382001    -0.1502472     1.0557385
O           2.2787915    -0.4076091    -0.8381622
C           5.7611944     1.6507236     0.1960768
H           6.6759301     2.1788994     0.4493137
C           5.1062420     1.9152189    -1.0081421
H           5.5082008     2.6533159    -1.6971149
C           3.9278389     1.2425322    -1.3332248
H           3.4064679     1.4413351    -2.2649042
C           3.4043718     0.2913443    -0.4533106
C           4.0644106     0.0102522     0.7487261
H           3.6709060    -0.7519178     1.4148806
C           5.2353279     0.6969616     1.0703384
H           5.7450127     0.4746216     2.0041691
30
373_C12H16O2_16-18-25-26 (75,) energy =    -617.3532933
C           0.3040681     0.7222486    -0.4347698
O           0.0600116     0.5365160    -1.8264208
H           0.8908388     0.1862060    -2.1926066
H           0.8626903     1.6597688    -0.2767546
C          -1.0452589     0.8074038     0.2845910
H          -0.8644250     1.1062134     1.3272090
H          -1.6367231     1.6058477    -0.1784454
C          -1.8041739    -0.5273129     0.2454719
H          -2.0788116    -0.7493988    -0.7925353
H          -2.7382622    -0.4426084     0.8144102
C          -0.9432569    -1.6710448     0.8029683
H          -1.4779000    -2.6258058     0.7284472
H          -0.7587523    -1.5014415     1.8746437
C           0.4001814    -1.7724844     0.0615522
H           0.2239280    -2.0336286    -0.9886622
H           1.0325474    -2.5593011     0.4888872
C           1.1511071    -0.4436761     0.1046941
H           1.4650036    -0.2179627     1.1331466
O           2.3311454    -0.5842572    -0.7287620
C           5.6994722     1.7199162     0.1573268
H           6.5851910     2.3095807     0.3760268
C           4.9098687     2.0243595    -0.9528889
H           5.1776891     2.8538907    -1.6018213
C           3.7698931     1.2698341    -1.2355290
H           3.1458805     1.4977858    -2.0947707
C           3.4224611     0.2013571    -0.4052278
C           4.2158243    -0.1159543     0.7023104
H           3.9467699    -0.9649851     1.3241386
C           5.3483641     0.6485755     0.9824236
H           5.9643857     0.3987405     1.8422222
30
373_C12H16O2_16-18-25-26 (90,) energy =    -617.3529775
C           0.3476373     0.7008480    -0.4603958
O           0.1795867     0.4728637    -1.8577967
H           1.0030063     0.0468988    -2.1548157
H           0.9069677     1.6371401    -0.3028291
C          -1.0364379     0.8321343     0.1829447
H          -0.9051339     1.1754143     1.2193468
H          -1.5901879     1.6172916    -0.3449732
C          -1.8134772    -0.4918401     0.1649246
H          -2.0375918    -0.7592708    -0.8746631
H          -2.7742589    -0.3679272     0.6796361
C          -0.9992325    -1.6177110     0.8194596
H          -1.5439886    -2.5681589     0.7657185
H          -0.8636531    -1.3974525     1.8891643
C           0.3750995    -1.7728895     0.1485906
H           0.2428954    -2.0823764    -0.8951859
H           0.9741304    -2.5474818     0.6409882
C           1.1498180    -0.4564112     0.1611311
H           1.4333698    -0.1906532     1.1893221
O           2.3573335    -0.6743201    -0.6163756
C           5.6828146     1.7397199     0.1314353
H           6.5584319     2.3557571     0.3156528
C           4.7583746     2.1105148    -0.8469342
H           4.9123597     3.0161356    -1.4275211
C           3.6329373     1.3208859    -1.0894592
H           2.9112878     1.5944409    -1.8536439
C           3.4329905     0.1551801    -0.3444401
C           4.3606517    -0.2268990     0.6287732
H           4.1974397    -1.1489992     1.1788841
C           5.4817046     0.5688668     0.8663186
H           6.2031537     0.2687524     1.6216758
30
373_C12H16O2_16-18-25-26 (105,) energy =    -617.3532608
C          -0.2724104     0.4864979    -1.1817484
O          -0.2726712    -0.5518655    -2.1569018
H           0.6277299    -0.5694745    -2.5235930
H          -0.2019047     1.4668866    -1.6809317
C          -1.5833761     0.4007962    -0.3958450
H          -1.6644197     1.2930973     0.2412227
H          -2.4159554     0.4383908    -1.1077089
C          -1.6602721    -0.8666300     0.4690957
H          -1.7045831    -1.7439233    -0.1872537
H          -2.5854369    -0.8593601     1.0586351
C          -0.4393103    -0.9817941     1.3940332
H          -0.4829150    -1.9118414     1.9738820
H          -0.4532559    -0.1594157     2.1252920
C           0.8722915    -0.9329757     0.5913475
H           0.9220759    -1.7936750    -0.0861724
H           1.7406611    -0.9869637     1.2581219
C           0.9421490     0.3409988    -0.2531647
H           0.9979499     1.2233732     0.4016673
O           2.0879227     0.3441806    -1.1389028
C           5.8766528     0.9755390     0.4954229
H           6.8682835     1.1406683     0.9072145
C           4.9949225     2.0477113     0.3381955
H           5.3009766     3.0508362     0.6232584
C           3.7225937     1.8411339    -0.1954261
H           3.0349191     2.6694914    -0.3400459
C           3.3288366     0.5521413    -0.5685682
C           4.2053557    -0.5244770    -0.4125415
H           3.8818769    -1.5150314    -0.7170835
C           5.4795454    -0.3078359     0.1150890
H           6.1614785    -1.1461157     0.2308707
30
373_C12H16O2_16-18-25-26 (120,) energy =    -617.3537162
C          -0.2679874     0.4010863    -1.2495764
O          -0.2204283    -0.7262541    -2.1187093
H           0.6896261    -0.7578018    -2.4594787
H          -0.2106034     1.3303015    -1.8399901
C          -1.5937999     0.3562436    -0.4852631
H          -1.7107256     1.3024651     0.0621299
H          -2.4109729     0.3043727    -1.2138377
C          -1.6590442    -0.8256063     0.4943508
H          -1.6665763    -1.7614926    -0.0769664
H          -2.5974384    -0.7877145     1.0613383
C          -0.4572591    -0.8211451     1.4512957
H          -0.4910138    -1.6945747     2.1138958
H          -0.5094770     0.0644315     2.1027086
C           0.8710729    -0.8106020     0.6758095
H           0.9615191    -1.7296220     0.0846927
H           1.7254347    -0.7752293     1.3617886
C           0.9263607     0.3795467    -0.2842346
H           0.9349485     1.3203397     0.2849793
O           2.0920918     0.3271009    -1.1386668
C           5.8945098     0.9227805     0.4774340
H           6.8913115     1.0749506     0.8814542
C           4.9387977     1.9376148     0.5641141
H           5.1921955     2.8855830     1.0314914
C           3.6587058     1.7510052     0.0413960
H           2.9222406     2.5478516     0.0865250
C           3.3294325     0.5332598    -0.5638741
C           4.2802650    -0.4867962    -0.6512988
H           4.0032809    -1.4220179    -1.1281758
C           5.5615482    -0.2862504    -0.1364839
H           6.2988423    -1.0812640    -0.2107034
30
373_C12H16O2_16-18-25-26 (135,) energy =    -617.3541004
C          -0.2564185     0.3042180    -1.3020957
O          -0.1588297    -0.9011217    -2.0535812
H           0.7607888    -0.9424062    -2.3662297
H          -0.2038581     1.1724124    -1.9793911
C          -1.6015759     0.3004614    -0.5710288
H          -1.7550660     1.2917292    -0.1211497
H          -2.3967004     0.1581762    -1.3117923
C          -1.6677286    -0.7832394     0.5161329
H          -1.6378384    -1.7694784     0.0379231
H          -2.6225228    -0.7147566     1.0519953
C          -0.4942186    -0.6565882     1.4994976
H          -0.5260186    -1.4640160     2.2411012
H          -0.5865030     0.2848959     2.0620764
C           0.8553148    -0.6842293     0.7623308
H           0.9855378    -1.6521945     0.2642155
H           1.6880740    -0.5610732     1.4642185
C           0.9095563     0.4097704    -0.3066939
H           0.8689468     1.4016825     0.1653834
O           2.0965721     0.3068204    -1.1225288
C           5.9192413     0.8815527     0.4513378
H           6.9223442     1.0273087     0.8414824
C           4.9030030     1.7814426     0.7762141
H           5.1131105     2.6336598     1.4173417
C           3.6112415     1.6068387     0.2768878
H           2.8330957     2.3234200     0.5197492
C           3.3318166     0.5129613    -0.5501134
C           4.3452091    -0.3951982    -0.8729933
H           4.1035986    -1.2375226    -1.5140353
C           5.6350006    -0.2047985    -0.3795151
H           6.4171454    -0.9136661    -0.6384720
30
373_C12H16O2_16-18-25-26 (150,) energy =    -617.3548079
C          -0.2322086     0.2089413    -1.3305091
O          -0.1238373    -1.0524109    -1.9816685
H           0.8020645    -1.1223107    -2.2694187
H          -0.1565249     1.0206873    -2.0724215
C          -1.5957098     0.2691564    -0.6370183
H          -1.7540343     1.2934021    -0.2704234
H          -2.3721174     0.0730259    -1.3852537
C          -1.6972406    -0.7259236     0.5291198
H          -1.6614657    -1.7465847     0.1301482
H          -2.6649154    -0.6115961     1.0330517
C          -0.5485377    -0.5284240     1.5297090
H          -0.6041886    -1.2760432     2.3302430
H          -0.6493981     0.4540322     2.0155832
C           0.8198045    -0.6189221     0.8331325
H           0.9564647    -1.6223050     0.4131896
H           1.6338194    -0.4486068     1.5465288
C           0.9087524     0.3889031    -0.3158368
H           0.8591699     1.4164413     0.0714549
O           2.1120891     0.2190071    -1.0919837
C           5.9445046     0.8932630     0.4159921
H           6.9517266     1.0608324     0.7860550
C           4.8759551     1.6324870     0.9227089
H           5.0480035     2.3826416     1.6902684
C           3.5762238     1.4269436     0.4539689
H           2.7593119     2.0175799     0.8543985
C           3.3434519     0.4639654    -0.5349061
C           4.4113020    -0.2883057    -1.0393770
H           4.2072558    -1.0351423    -1.8006576
C           5.7037513    -0.0667270    -0.5705985
H           6.5250847    -0.6540772    -0.9727184
30
373_C12H16O2_16-18-25-26 (165,) energy =    -617.3554065
C          -0.1929792     0.1359176    -1.3308164
O          -0.1227980    -1.1582649    -1.9199599
H           0.8043160    -1.2796907    -2.1855344
H          -0.0618273     0.9078495    -2.1066636
C          -1.5709030     0.2868506    -0.6811166
H          -1.6936073     1.3330334    -0.3665011
H          -2.3344286     0.0894680    -1.4421592
C          -1.7482842    -0.6471288     0.5257131
H          -1.7464171    -1.6859973     0.1750720
H          -2.7234738    -0.4681159     0.9951127
C          -0.6198699    -0.4522092     1.5495218
H          -0.7299628    -1.1589631     2.3809373
H          -0.6909622     0.5550915     1.9875384
C           0.7615404    -0.6333526     0.8978077
H           0.8637740    -1.6592106     0.5253288
H           1.5627193    -0.4698572     1.6269119
C           0.9276145     0.3155665    -0.2928844
H           0.9164547     1.3626077     0.0412001
O           2.1414737     0.0542708    -1.0219499
C           5.9696484     0.9755528     0.3579279
H           6.9769046     1.2051434     0.6927732
C           4.8683254     1.5507524     0.9890240
H           5.0130963     2.2344670     1.8215457
C           3.5665592     1.2629602     0.5688338
H           2.7269778     1.7243522     1.0761953
C           3.3662941     0.3842451    -0.5023661
C           4.4706155    -0.2021881    -1.1360994
H           4.2931567    -0.8840097    -1.9622964
C           5.7606615     0.0970861    -0.7096062
H           6.6077474    -0.3627312    -1.2118932
30
373_C12H16O2_16-18-25-26 (180,) energy =    -617.3555860
C          -0.1369310     0.0762760    -1.3174463
O          -0.1195284    -1.2381335    -1.8646462
H           0.8057054    -1.4158400    -2.1035435
H           0.0641955     0.8145673    -2.1108099
C          -1.5262055     0.3232609    -0.7237251
H          -1.6011292     1.3840896    -0.4453102
H          -2.2723509     0.1436420    -1.5061084
C          -1.7980492    -0.5602106     0.5035068
H          -1.8429990    -1.6083892     0.1849593
H          -2.7771967    -0.3119212     0.9312587
C          -0.6968038    -0.3948878     1.5615372
H          -0.8756919    -1.0665747     2.4098816
H          -0.7260240     0.6288325     1.9650329
C           0.6936620    -0.6735526     0.9658189
H           0.7493066    -1.7142412     0.6264068
H           1.4776001    -0.5353072     1.7186322
C           0.9563843     0.2264960    -0.2457226
H           1.0000420     1.2825525     0.0543883
O           2.1789241    -0.1316442    -0.9157783
C           5.9862801     1.0831339     0.2813823
H           6.9885721     1.3870626     0.5683795
C           4.8825879     1.5002884     1.0220385
H           5.0201606     2.1335733     1.8946911
C           3.5868203     1.1145219     0.6650371
H           2.7476008     1.4495466     1.2632596
C           3.3951003     0.2980811    -0.4560011
C           4.5032266    -0.1250531    -1.2045156
H           4.3329868    -0.7562467    -2.0714297
C           5.7858773     0.2661060    -0.8358542
H           6.6346963    -0.0687372    -1.4263263
