19
253_C6H9N3O_4-0-2-11 (-165,) energy =    -473.5522021
N           1.0288007    -0.7643068    -0.2024230
H           1.0647783     0.0401526     0.4134404
C           2.2369778    -1.1948896    -0.6606703
O           2.4094492    -2.2113468    -1.3367864
C          -0.1444956    -1.6160055    -0.2078471
H          -0.3354170    -2.0498712     0.7829168
H           0.0333103    -2.4246732    -0.9184506
H          -1.0293651    -1.0515063    -0.5205123
C           4.4910480     1.2503003     0.6854528
H           4.6907218     2.1229362     1.2925900
N           3.2328457     0.7366328     0.5551666
C           3.3580927    -0.3151906    -0.2460802
N           4.6580766    -0.4998070    -0.6406025
C           5.1972583    -1.5405778    -1.5141434
H           4.6981497    -1.5176814    -2.4836930
H           5.0377483    -2.5261909    -1.0745627
H           6.2661503    -1.3555243    -1.6405236
C           5.3868876     0.5005153    -0.0453025
H           6.4538671     0.5837626    -0.1914075
19
253_C6H9N3O_4-0-2-11 (-150,) energy =    -473.5498801
N           0.9885928    -0.7064699    -0.4023706
H           1.0477997     0.1032803     0.2077757
C           2.2152413    -1.1717322    -0.7933622
O           2.3962904    -2.2116723    -1.4279932
C          -0.1124129    -1.6295157    -0.1727723
H          -0.1115437    -2.0171627     0.8554352
H          -0.0048862    -2.4662585    -0.8646665
H          -1.0683114    -1.1317218    -0.3619073
C           4.4697038     1.1965176     0.6806851
H           4.6654942     2.0520421     1.3128871
N           3.2062006     0.7175069     0.4892069
C           3.3385606    -0.3240737    -0.3248709
N           4.6493236    -0.5329223    -0.6704344
C           5.1981652    -1.5737181    -1.5378352
H           4.7258486    -1.5356868    -2.5202932
H           5.0136508    -2.5607093    -1.1112503
H           6.2722920    -1.4018026    -1.6346920
C           5.3766787     0.4373918    -0.0270980
H           6.4508004     0.4953164    -0.1257735
19
253_C6H9N3O_4-0-2-11 (-135,) energy =    -473.5456471
N           0.9508047    -0.6676698    -0.5698924
H           1.0279960     0.1669764     0.0066587
C           2.1975548    -1.1348448    -0.9248670
O           2.3914275    -2.1756550    -1.5511363
C          -0.0562417    -1.6187679    -0.1054382
H           0.0850428    -1.8760093     0.9535515
H           0.0242531    -2.5269816    -0.7051331
H          -1.0573431    -1.1980128    -0.2375448
C           4.4260823     1.1507735     0.7083654
H           4.6096310     1.9854138     1.3713969
N           3.1645063     0.7032001     0.4464551
C           3.3135192    -0.3213037    -0.3873104
N           4.6354697    -0.5460510    -0.6795585
C           5.2035120    -1.5758968    -1.5476676
H           4.7765504    -1.5047662    -2.5489798
H           4.9819295    -2.5690437    -1.1544148
H           6.2837967    -1.4224645    -1.5930166
C           5.3502172     0.3902815     0.0235357
H           6.4289365     0.4267805    -0.0210994
19
253_C6H9N3O_4-0-2-11 (-120,) energy =    -473.5398657
N           0.9133685    -0.6504768    -0.7299395
H           0.9926880     0.2214002    -0.2088326
C           2.1849659    -1.1001160    -1.0590932
O           2.3980185    -2.1266316    -1.6990159
C           0.0245147    -1.5911772    -0.0393770
H           0.3350206    -1.7613187     1.0012542
H           0.0347286    -2.5432004    -0.5737086
H          -0.9964770    -1.1995459    -0.0462864
C           4.3623840     1.1072042     0.7391246
H           4.5248101     1.9219219     1.4317795
N           3.1097539     0.6867916     0.4038090
C           3.2848123    -0.3196568    -0.4479145
N           4.6176385    -0.5569369    -0.6802287
C           5.2137749    -1.5743108    -1.5441677
H           4.8352309    -1.4751591    -2.5624092
H           4.9624325    -2.5732358    -1.1846888
H           6.2967336    -1.4339424    -1.5354660
C           5.3089898     0.3490545     0.0816127
H           6.3890837     0.3689025     0.0933860
19
253_C6H9N3O_4-0-2-11 (-105,) energy =    -473.5333418
N           0.8752629    -0.6520784    -0.8700054
H           0.9450614     0.2636010    -0.4257731
C           2.1747018    -1.0719587    -1.1837258
O           2.4105543    -2.0678146    -1.8584899
C           0.1271940    -1.5414604     0.0348358
H           0.5703579    -1.5802604     1.0402707
H           0.1102689    -2.5489699    -0.3872151
H          -0.9030668    -1.1837748     0.1136421
C           4.2867913     1.0561566     0.7768758
H           4.4245421     1.8480963     1.5006180
N           3.0479621     0.6593237     0.3723069
C           3.2527037    -0.3236170    -0.5013293
N           4.5942007    -0.5660685    -0.6800809
C           5.2210514    -1.5626650    -1.5464206
H           4.8923669    -1.4279566    -2.5778039
H           4.9437942    -2.5695870    -1.2306880
H           6.3036667    -1.4348949    -1.4820384
C           5.2566921     0.3089458     0.1395877
H           6.3352902     0.3183268     0.2015723
19
253_C6H9N3O_4-0-2-11 (-90,) energy =    -473.5270081
N           0.8357947    -0.6880865    -0.9887097
H           0.8725614     0.2752501    -0.6511276
C           2.1659669    -1.0621122    -1.2962765
O           2.4312926    -2.0072561    -2.0256643
C           0.2433240    -1.4783992     0.1113824
H           0.7902981    -1.3618667     1.0577831
H           0.2319884    -2.5349708    -0.1695054
H          -0.7904873    -1.1524836     0.2549284
C           4.2012333     1.0019084     0.8059182
H           4.3114317     1.7725945     1.5568599
N           2.9794016     0.6174210     0.3446057
C           3.2172143    -0.3399377    -0.5500174
N           4.5663445    -0.5768659    -0.6850065
C           5.2271914    -1.5445382    -1.5587498
H           4.9686987    -1.3529032    -2.6013790
H           4.9100838    -2.5585396    -1.3111976
H           6.3057862    -1.4455131    -1.4199679
C           5.1958556     0.2740924     0.1829689
H           6.2714878     0.2834919     0.2847086
19
253_C6H9N3O_4-0-2-11 (-75,) energy =    -473.5323065
N           0.8288791    -0.7091963    -1.0643825
H           0.2955312    -1.0359838    -1.8705898
C           2.1407625    -1.1313266    -1.3173683
O           2.4177510    -1.8361631    -2.2864124
C           0.1546536    -1.1663804     0.1646638
H          -0.8429735    -0.7199664     0.2002758
H           0.7171835    -0.8153193     1.0314420
H           0.0559837    -2.2603567     0.2090715
C           4.2349002     0.6951948     0.9465162
H           4.3759528     1.3807866     1.7714591
N           2.9947727     0.3574816     0.4995242
C           3.1935046    -0.4816210    -0.5131280
N           4.5384125    -0.7081373    -0.7215531
C           5.1770319    -1.5482530    -1.7329160
H           4.9460646    -1.1833673    -2.7350355
H           4.8191307    -2.5754788    -1.6557783
H           6.2557800    -1.5165892    -1.5647757
C           5.2034698     0.0511477     0.2032585
H           6.2828477     0.0728886     0.2436531
19
253_C6H9N3O_4-0-2-11 (-60,) energy =    -473.5374565
N           0.8211946    -0.8324693    -1.1097950
H           0.2723619    -1.2322008    -1.8686980
C           2.1437136    -1.1644235    -1.3675195
O           2.4580104    -1.8089032    -2.3693377
C           0.1805042    -1.0839095     0.1897870
H          -0.8271491    -0.6594949     0.1656193
H           0.7503718    -0.5830210     0.9720222
H           0.1053859    -2.1568949     0.4166990
C           4.1926464     0.6242827     0.9790589
H           4.3176619     1.2863811     1.8254092
N           2.9598355     0.2777024     0.5165110
C           3.1751699    -0.5291527    -0.5183087
N           4.5244060    -0.7218073    -0.7301728
C           5.1856250    -1.5171432    -1.7636479
H           4.9444292    -1.1320176    -2.7551989
H           4.8555671    -2.5554282    -1.7146650
H           6.2628912    -1.4609821    -1.5919790
C           5.1734458     0.0191563     0.2214617
H           6.2520611     0.0537139     0.2696900
19
253_C6H9N3O_4-0-2-11 (-45,) energy =    -473.5407287
N           0.8236616    -0.9550617    -1.1253340
H           0.2764013    -1.4062983    -1.8532118
C           2.1551735    -1.1815859    -1.3974775
O           2.4983108    -1.7690473    -2.4268842
C           0.1930115    -1.0174712     0.1965686
H          -0.8223688    -0.6192615     0.1128184
H           0.7587202    -0.4022679     0.8940885
H           0.1349266    -2.0466411     0.5788937
C           4.1767628     0.5708679     1.0105562
H           4.2937069     1.2119035     1.8740305
N           2.9478942     0.2187650     0.5406824
C           3.1702283    -0.5599620    -0.5141073
N           4.5220494    -0.7256028    -0.7341385
C           5.1977544    -1.4841598    -1.7863495
H           4.9632316    -1.0694174    -2.7672690
H           4.8731957    -2.5250274    -1.7734740
H           6.2728724    -1.4270689    -1.6014037
C           5.1627851    -0.0019427     0.2365574
H           6.2409188     0.0411658     0.2870163
19
253_C6H9N3O_4-0-2-11 (-30,) energy =    -473.5423883
N           0.8224620    -1.0960013    -1.1144849
H           0.2890735    -1.5827830    -1.8272578
C           2.1580657    -1.2081280    -1.4006357
O           2.5294645    -1.7491048    -2.4474542
C           0.1697600    -0.9784591     0.1878287
H          -0.8401045    -0.5855852     0.0353052
H           0.7331403    -0.2896225     0.8136688
H           0.0925804    -1.9498064     0.6971243
C           4.1359989     0.5377940     1.0560812
H           4.2385890     1.1591467     1.9355647
N           2.9150282     0.1646228     0.5809999
C           3.1523287    -0.5818596    -0.4937678
N           4.5076589    -0.7031429    -0.7231171
C           5.2037442    -1.4173932    -1.7933629
H           4.9642540    -0.9804390    -2.7632279
H           4.9012131    -2.4645893    -1.8113104
H           6.2765376    -1.3423033    -1.6009558
C           5.1328665     0.0111564     0.2647388
H           6.2097693     0.0778361     0.3151258
19
253_C6H9N3O_4-0-2-11 (-15,) energy =    -473.5429665
N           0.9825428    -1.8969183    -0.2866473
H           0.6078717    -2.8301035    -0.4133404
C           2.3163051    -1.8847101    -0.5790022
O           2.8679406    -2.9084035    -0.9996733
C           0.1458377    -0.9456725     0.4352364
H          -0.8571928    -0.9488381    -0.0044984
H           0.5754600     0.0499686     0.3521069
H           0.0599190    -1.2113974     1.4982625
C           3.7403884     1.4020734    -0.1359719
H           3.6632435     2.4555383     0.0970300
N           2.6546469     0.5795674    -0.1044780
C           3.0981734    -0.6291624    -0.4381921
N           4.4560393    -0.6057565    -0.6844901
C           5.3450210    -1.6972753    -1.0837078
H           5.0511150    -2.0932413    -2.0560417
H           5.2973521    -2.5111521    -0.3601726
H           6.3607717    -1.2976757    -1.1311763
C           4.8629106     0.6882579    -0.4909772
H           5.8955436     0.9779491    -0.6189254
19
253_C6H9N3O_4-0-2-11 (0,) energy =    -473.5430436
N           1.0405962    -1.9553236    -0.1307040
H           0.6682301    -2.8902777    -0.2488755
C           2.3629333    -1.9267964    -0.4624905
O           2.9263940    -2.9602244    -0.8430842
C           0.1217296    -0.9273914     0.3396375
H          -0.7176491    -0.8199151    -0.3589716
H           0.6500249     0.0201925     0.4154299
H          -0.2800091    -1.1978383     1.3244100
C           3.7816616     1.3710741    -0.0700320
H           3.7116347     2.4192137     0.1877664
N           2.7060020     0.5391336     0.0145436
C           3.1350498    -0.6597897    -0.3700662
N           4.4738968    -0.6198320    -0.7038382
C           5.3469629    -1.6961684    -1.1738587
H           4.9656909    -2.1179137    -2.1038657
H           5.3961293    -2.4971687    -0.4361125
H           6.3406698    -1.2709743    -1.3335751
C           4.8831301     0.6737374    -0.5119685
H           5.9026097     0.9748831    -0.7031494
19
253_C6H9N3O_4-0-2-11 (15,) energy =    -473.5429666
N           1.0676741    -1.9730359     0.0439126
H           0.6972552    -2.9099822    -0.0664675
C           2.3801453    -1.9416535    -0.3315671
O           2.9526105    -2.9837698    -0.6714116
C           0.0980049    -0.9032004     0.2470447
H          -0.4921239    -0.7173110    -0.6613688
H           0.6194870     0.0100412     0.5242222
H          -0.5867217    -1.1917520     1.0516068
C           3.7780836     1.3682686     0.0111683
H           3.7134352     2.4104531     0.2934846
N           2.7192169     0.5217153     0.1471593
C           3.1371809    -0.6639820    -0.2870540
N           4.4510732    -0.6011288    -0.7050799
C           5.3045122    -1.6606573    -1.2437084
H           4.8463543    -2.1068059    -2.1264528
H           5.4482178    -2.4485837    -0.5040457
H           6.2650427    -1.2115436    -1.5070703
C           4.8568963     0.6937080    -0.5148997
H           5.8573981     1.0122021    -0.7682365
19
253_C6H9N3O_4-0-2-11 (30,) energy =    -473.5423883
N           1.1414857    -2.0145174     0.1663499
H           0.7642813    -2.9523240     0.0783730
C           2.4352403    -2.0085206    -0.2858165
O           2.9838786    -3.0626908    -0.6236667
C           0.1555820    -0.9359958     0.1410145
H          -0.3003994    -0.8203472    -0.8527459
H           0.6344399    -0.0017273     0.4263328
H          -0.6348832    -1.1718912     0.8600127
C           3.8794027     1.2789225     0.0351584
H           3.8383951     2.3162047     0.3392288
N           2.8204100     0.4394990     0.2072948
C           3.2071876    -0.7408625    -0.2679137
N           4.4990088    -0.6816880    -0.7495018
C           5.3139319    -1.7421133    -1.3423870
H           4.8000878    -2.1846164    -2.1959807
H           5.5012818    -2.5322865    -0.6147547
H           6.2574501    -1.2959464    -1.6652698
C           4.9259914     0.6055139    -0.5551703
H           5.9163217     0.9202459    -0.8499487
19
253_C6H9N3O_4-0-2-11 (45,) energy =    -473.5407287
N           1.1784750    -1.9759333     0.2973520
H           0.8014974    -2.9185744     0.2501298
C           2.4377120    -1.9970937    -0.2613743
O           2.9441637    -3.0576908    -0.6371043
C           0.1652084    -0.9358808     0.0957949
H          -0.2463867    -0.9515198    -0.9235590
H           0.6065756     0.0392069     0.2943747
H          -0.6508328    -1.1083838     0.8035401
C           3.9389677     1.2581537     0.0644629
H           3.9207964     2.2908100     0.3861478
N           2.8758942     0.4288660     0.2568980
C           3.2351440    -0.7476837    -0.2481785
N           4.5105632    -0.6959268    -0.7715303
C           5.2908262    -1.7596547    -1.4030416
H           4.7482931    -2.1770937    -2.2517500
H           5.4813690    -2.5662383    -0.6942838
H           6.2345863    -1.3258292    -1.7413551
C           4.9594223     0.5823628    -0.5691013
H           5.9454255     0.8894147    -0.8857918
19
253_C6H9N3O_4-0-2-11 (60,) energy =    -473.5374565
N           1.1995164    -1.9205300     0.4058180
H           0.8427579    -2.8742545     0.4141388
C           2.4216227    -1.9665451    -0.2499298
O           2.8796534    -3.0280137    -0.6756878
C           0.1405587    -0.9675613     0.0410219
H          -0.2475105    -1.1436392    -0.9723033
H           0.5325823     0.0467344     0.1121029
H          -0.6812552    -1.0751210     0.7545553
C           3.9758251     1.2512818     0.1162645
H           3.9753359     2.2773610     0.4590088
N           2.9081020     0.4296325     0.3131222
C           3.2481139    -0.7398904    -0.2205864
N           4.5123529    -0.6904809    -0.7698559
C           5.2648899    -1.7529769    -1.4351610
H           4.7065119    -2.1378039    -2.2892643
H           5.4457439    -2.5809214    -0.7485219
H           6.2146621    -1.3311028    -1.7714375
C           4.9788619     0.5782298    -0.5493307
H           5.9640457     0.8804479    -0.8733803
19
253_C6H9N3O_4-0-2-11 (75,) energy =    -473.5323064
N           1.2205909    -1.8353381     0.5038692
H           0.9098712    -2.8037973     0.5860942
C           2.4106522    -1.9101998    -0.2319210
O           2.8100814    -2.9708804    -0.7093891
C           0.1057327    -1.0245022    -0.0193832
H          -0.2510756    -1.3795816    -0.9966745
H           0.4297443     0.0141185    -0.1046571
H          -0.7207074    -1.0677073     0.6954206
C           4.0413640     1.2554307     0.1759952
H           4.0678442     2.2736502     0.5406742
N           2.9639980     0.4493422     0.3791477
C           3.2742863    -0.7147638    -0.1844433
N           4.5256546    -0.6747583    -0.7641016
C           5.2400835    -1.7375250    -1.4688025
H           4.6496734    -2.0993385    -2.3112617
H           5.4291233    -2.5796310    -0.8010762
H           6.1866505    -1.3268572    -1.8270404
C           5.0196211     0.5793948    -0.5249633
H           6.0050374     0.8702671    -0.8588921
19
253_C6H9N3O_4-0-2-11 (90,) energy =    -473.5270081
N           1.2102899    -1.7651778     0.4987968
H           1.3585336    -1.1203365     1.2769574
C           2.4454875    -1.8679034    -0.1850058
O           2.7037754    -2.7943545    -0.9404376
C           0.1339530    -1.1679896    -0.3201500
H          -0.7876080    -1.1632007     0.2683184
H          -0.0303488    -1.7871128    -1.2061867
H           0.3632229    -0.1400076    -0.6349895
C           4.1247223     1.2196315     0.4998638
H           4.1648706     2.1923899     0.9711850
N           3.0589130     0.3875473     0.6586055
C           3.3415687    -0.7000092    -0.0560753
N           4.5709210    -0.5942957    -0.6660150
C           5.2336927    -1.5692539    -1.5301477
H           4.6301038    -1.7621659    -2.4181279
H           5.3710781    -2.5136718    -1.0011741
H           6.2046112    -1.1615292    -1.8191310
C           5.0700394     0.6317069    -0.3173111
H           6.0292910     0.9744935    -0.6775302
19
253_C6H9N3O_4-0-2-11 (105,) energy =    -473.5333417
N           1.2171066    -1.6355922     0.4879841
H           1.3508293    -0.9021612     1.1843202
C           2.4154908    -1.7667330    -0.2261038
O           2.6178505    -2.6675693    -1.0324613
C           0.0369470    -1.2859781    -0.3209098
H          -0.8533646    -1.3275610     0.3124912
H          -0.0769086    -2.0189197    -1.1229849
H           0.1166046    -0.2814063    -0.7605764
C           4.2252016     1.2311124     0.5301397
H           4.3045047     2.1924723     1.0194745
N           3.1228292     0.4426717     0.6679578
C           3.3624568    -0.6419568    -0.0651922
N           4.5973997    -0.5797114    -0.6663428
C           5.2200003    -1.5655246    -1.5479556
H           4.6328986    -1.6849554    -2.4598243
H           5.2765097    -2.5351565    -1.0514217
H           6.2247025    -1.2146314    -1.7928484
C           5.1475623     0.6181382    -0.2936831
H           6.1220389     0.9255269    -0.6446909
19
253_C6H9N3O_4-0-2-11 (120,) energy =    -473.5398653
N           1.2081214    -1.4988508     0.4407818
H           1.3161869    -0.7082827     1.0743029
C           2.3788885    -1.6603624    -0.2877020
O           2.5419284    -2.5451335    -1.1238886
C          -0.0453345    -1.3941373    -0.3139868
H          -0.8921029    -1.4991878     0.3699721
H          -0.0863143    -2.2046730    -1.0442635
H          -0.1286151    -0.4330099    -0.8408819
C           4.3180561     1.2315045     0.5617127
H           4.4339147     2.1783994     1.0714889
N           3.1758599     0.4946918     0.6651177
C           3.3760964    -0.5846700    -0.0857353
N           4.6213323    -0.5712618    -0.6653928
C           5.2098443    -1.5688778    -1.5571463
H           4.6346474    -1.6392364    -2.4815104
H           5.2076665    -2.5502497    -1.0808706
H           6.2356312    -1.2647074    -1.7758287
C           5.2240380     0.5905375    -0.2578081
H           6.2185809     0.8558657    -0.5858916
19
253_C6H9N3O_4-0-2-11 (135,) energy =    -473.5456473
N           1.1879182    -1.3508546     0.3716827
H           1.2678007    -0.5230349     0.9576277
C           2.3397803    -1.5465444    -0.3589205
O           2.4763852    -2.4270018    -1.2069194
C          -0.1048978    -1.4826311    -0.2960834
H          -0.8872734    -1.6861099     0.4408854
H          -0.0506556    -2.3224820    -0.9908325
H          -0.3691396    -0.5736606    -0.8542737
C           4.3967724     1.2331446     0.5896630
H           4.5469511     2.1643945     1.1189523
N           3.2166319     0.5520490     0.6515155
C           3.3828414    -0.5231433    -0.1122513
N           4.6400344    -0.5627907    -0.6612490
C           5.2015490    -1.5751073    -1.5538767
H           4.6442986    -1.6064279    -2.4911907
H           5.1434311    -2.5615703    -1.0917972
H           6.2449477    -1.3160908    -1.7458197
C           5.2894506     0.5616572    -0.2188056
H           6.3043079     0.7810403    -0.5169643
19
253_C6H9N3O_4-0-2-11 (150,) energy =    -473.5498802
N           1.1601037    -1.2014789     0.2801741
H           1.2070334    -0.3556885     0.8404541
C           2.3056180    -1.4348691    -0.4320692
O           2.4345066    -2.3262345    -1.2722306
C          -0.1380073    -1.5596239    -0.2707919
H          -0.8426078    -1.7820014     0.5363033
H          -0.0117707    -2.4508185    -0.8874377
H          -0.5531622    -0.7541467    -0.8923518
C           4.4558194     1.2340761     0.6250233
H           4.6317844     2.1471521     1.1775296
N           3.2441085     0.6062958     0.6399246
C           3.3850500    -0.4608482    -0.1388328
N           4.6526223    -0.5463371    -0.6556220
C           5.1937555    -1.5662787    -1.5521451
H           4.6611230    -1.5570881    -2.5041754
H           5.0807388    -2.5571580    -1.1103636
H           6.2519958    -1.3490593    -1.7122298
C           5.3404612     0.5380785    -0.1704777
H           6.3732721     0.7143099    -0.4332986
19
253_C6H9N3O_4-0-2-11 (165,) energy =    -473.5522021
N           1.1200506    -1.0292728     0.1624722
H           1.1423999    -0.1847690     0.7228676
C           2.2783650    -1.3175548    -0.4935564
O           2.4182022    -2.2416442    -1.2976379
C          -0.1533105    -1.5939321    -0.2398138
H          -0.7389270    -1.8885908     0.6374694
H           0.0504320    -2.4772139    -0.8470833
H          -0.7427614    -0.8829206    -0.8342302
C           4.4864644     1.2609837     0.6665612
H           4.6776362     2.1578477     1.2401981
N           3.2524163     0.6780456     0.6329058
C           3.3803827    -0.3823849    -0.1564466
N           4.6590638    -0.5064039    -0.6353584
C           5.1929518    -1.5335067    -1.5281133
H           4.6765810    -1.5078959    -2.4887100
H           5.0512018    -2.5240648    -1.0940306
H           6.2579361    -1.3375740    -1.6701120
C           5.3703373     0.5450373    -0.1112270
H           6.4172880     0.6854667    -0.3368536
19
253_C6H9N3O_4-0-2-11 (180,) energy =    -473.5528617
N           1.0365533    -0.8878465    -0.0245288
H           1.0688810    -0.0629738     0.5623349
C           2.2121835    -1.2662272    -0.5914872
O           2.3543272    -2.2423244    -1.3320954
C          -0.2037770    -1.6045242    -0.2331154
H          -0.6132301    -1.9728950     0.7153599
H           0.0113262    -2.4545943    -0.8826050
H          -0.9554201    -0.9674600    -0.7153198
C           4.4893595     1.2196599     0.6375092
H           4.7020304     2.1036966     1.2233846
N           3.2336616     0.6881230     0.5663098
C           3.3396081    -0.3720570    -0.2264014
N           4.6243406    -0.5456029    -0.6720557
C           5.1410446    -1.5900034    -1.5548525
H           4.6285226    -1.5614400    -2.5173199
H           4.9784012    -2.5744391    -1.1140919
H           6.2099378    -1.4153085    -1.6953035
C           5.3638937     0.4720960    -0.1205145
H           6.4220497     0.5687239    -0.3145572
