19
253_C6H9N3O_0-2-11-10 (-165,) energy =    -473.5307516
N           1.6348741    -1.5821564    -0.6332796
H           2.2027336    -2.0472082     0.0627865
C           1.8387710    -0.2216679    -0.7956812
O           0.9573118     0.5153716    -1.2075808
C           0.2829899    -2.1047313    -0.7983498
H           0.3247877    -3.1971257    -0.8029777
H          -0.1161667    -1.7536417    -1.7510871
H          -0.3969058    -1.7690438    -0.0044722
C           4.7972946     1.6998072    -0.1666794
H           5.2646477     2.6612887    -0.0001915
N           3.4516351     1.5832433    -0.3499504
C           3.2144658     0.2905784    -0.5129991
N           4.3925869    -0.4419755    -0.4635927
C           4.6277214    -1.8625641    -0.6973477
H           3.9562855    -2.2310768    -1.4737849
H           4.4809441    -2.4519906     0.2164837
H           5.6601877    -1.9954861    -1.0269003
C           5.4008023     0.4663199    -0.2390141
H           6.4324757     0.1532181    -0.1656494
19
253_C6H9N3O_0-2-11-10 (-150,) energy =    -473.5319899
N           1.6216798    -1.5314071    -0.5440565
H           2.1423300    -1.8796305     0.2507699
C           1.8744979    -0.2274596    -0.9283387
O           1.0585561     0.4401623    -1.5435304
C           0.2839990    -2.0789310    -0.7328286
H           0.3182885    -3.1619349    -0.5876320
H          -0.0438407    -1.8592982    -1.7499697
H          -0.4478867    -1.6424438    -0.0406583
C           4.7775963     1.6964118    -0.0688463
H           5.2279976     2.6493900     0.1751210
N           3.4422134     1.5845835    -0.3311659
C           3.2286143     0.3024087    -0.5780095
N           4.4032133    -0.4276971    -0.4973999
C           4.6490216    -1.8338359    -0.7998007
H           3.8825437    -2.2043210    -1.4799634
H           4.6437996    -2.4453878     0.1107194
H           5.6275744    -1.9292615    -1.2765358
C           5.3933281     0.4715326    -0.1722676
H           6.4231117     0.1609638    -0.0682445
19
253_C6H9N3O_0-2-11-10 (-135,) energy =    -473.5324300
N           1.5631894    -1.5234139    -0.4447261
H           2.0069359    -1.7473055     0.4369956
C           1.9137991    -0.3201274    -1.0233369
O           1.2040485     0.2514056    -1.8352817
C           0.2342303    -2.0747248    -0.6764089
H           0.2231799    -3.1246047    -0.3719568
H           0.0072397    -2.0025235    -1.7411226
H          -0.5438464    -1.5294638    -0.1264980
C           4.7417338     1.6020191     0.0762635
H           5.1642652     2.5443847     0.3986408
N           3.4214603     1.4934697    -0.2675590
C           3.2422423     0.2254354    -0.5935262
N           4.4116260    -0.5020279    -0.4694887
C           4.6923644    -1.8686580    -0.8969409
H           3.7605382    -2.3555179    -1.1824051
H           5.1546431    -2.4314783    -0.0794089
H           5.3727983    -1.8661487    -1.7545935
C           5.3750462     0.3893171    -0.0499339
H           6.4002913     0.0818673     0.0985241
19
253_C6H9N3O_0-2-11-10 (-120,) energy =    -473.5322511
N           1.4802652    -1.5141257    -0.3307675
H           1.8705817    -1.6105621     0.5976228
C           1.9160672    -0.4448811    -1.0790450
O           1.3154939    -0.0254313    -2.0558188
C           0.1782789    -2.1149078    -0.5844916
H           0.1666020    -3.1374796    -0.1973350
H           0.0118269    -2.1305755    -1.6624748
H          -0.6375864    -1.5447350    -0.1214098
C           4.6507314     1.5498570     0.1490243
H           5.0346367     2.4899746     0.5220589
N           3.3339151     1.4094537    -0.2088816
C           3.2096334     0.1551621    -0.6009688
N           4.3989441    -0.5346121    -0.4990665
C           4.7030451    -1.8773837    -0.9769226
H           3.7754533    -2.4417601    -1.0780013
H           5.3513181    -2.3857043    -0.2572478
H           5.2081327    -1.8409041    -1.9481232
C           5.3294705     0.3699552    -0.0312778
H           6.3630009     0.0911662     0.1150058
19
253_C6H9N3O_0-2-11-10 (-105,) energy =    -473.5320906
N           1.3922512    -1.4252923    -0.2409519
H           1.6744104    -1.3887247     0.7297055
C           1.9797579    -0.5263385    -1.0926926
O           1.5615386    -0.2902160    -2.2164145
C           0.1133023    -2.0423931    -0.5609078
H           0.0293508    -3.0020088    -0.0433061
H           0.0731287    -2.2037855    -1.6390844
H          -0.7342798    -1.4052437    -0.2769808
C           4.6383054     1.5216851     0.2361055
H           4.9941874     2.4547182     0.6520318
N           3.3140182     1.3429535    -0.0862495
C           3.2332097     0.1078135    -0.5423625
N           4.4505837    -0.5295094    -0.5264585
C           4.7643128    -1.8452685    -1.0642416
H           3.8761381    -2.4777735    -1.0104137
H           5.5582177    -2.3023530    -0.4678008
H           5.0919899    -1.7780686    -2.1071982
C           5.3593878     0.3857663    -0.0342971
H           6.4063629     0.1411716     0.0704882
19
253_C6H9N3O_0-2-11-10 (-90,) energy =    -473.5338595
N           1.3309982    -1.3082997    -0.0611309
H           1.5345201    -1.1263927     0.9129663
C           2.0627314    -0.6098715    -0.9783651
O           1.8188802    -0.5959062    -2.1790652
C           0.0550288    -1.9201060    -0.3985678
H          -0.0723810    -2.8497197     0.1642280
H           0.0625916    -2.1384526    -1.4672226
H          -0.7901271    -1.2534853    -0.1840162
C           4.6901983     1.5132293     0.2848918
H           5.0326931     2.4487754     0.7062682
N           3.3520720     1.2608219     0.0982744
C           3.2978071     0.0429189    -0.4099464
N           4.5473786    -0.4896037    -0.6044455
C           4.8652834    -1.7871745    -1.1825867
H           4.1065131    -2.0422354    -1.9249400
H           4.9051006    -2.5692812    -0.4161390
H           5.8352668    -1.7290979    -1.6815881
C           5.4456559     0.4496684    -0.1425419
H           6.5105644     0.2693851    -0.1608286
19
253_C6H9N3O_0-2-11-10 (-75,) energy =    -473.5377780
N           1.2630765    -1.2591257    -0.0092067
H           1.3969610    -0.9294949     0.9382678
C           2.1163193    -0.7548525    -0.9470613
O           1.9889800    -0.9292452    -2.1553253
C          -0.0265459    -1.8273244    -0.3684460
H          -0.2666246    -2.6580940     0.3019576
H           0.0459092    -2.1954401    -1.3926831
H          -0.8328254    -1.0840524    -0.3188860
C           4.6380684     1.4527150     0.3604976
H           4.9319930     2.3882013     0.8172306
N           3.3164825     1.1169216     0.2041193
C           3.3253442    -0.0779800    -0.3648957
N           4.6006344    -0.5056480    -0.6347627
C           4.9930637    -1.7522011    -1.2787575
H           4.2216872    -2.0348716    -1.9963456
H           5.1277857    -2.5541615    -0.5443294
H           5.9336201    -1.5971883    -1.8123168
C           5.4472705     0.4663386    -0.1486682
H           6.5207021     0.3588776    -0.2047466
19
253_C6H9N3O_0-2-11-10 (-60,) energy =    -473.5423966
N           1.2336896    -1.2163395     0.0159032
H           1.3216805    -0.7377081     0.9039772
C           2.1727619    -0.8988052    -0.9215779
O           2.1187762    -1.2508504    -2.0980492
C          -0.0635265    -1.7588590    -0.3533260
H          -0.4086983    -2.4526634     0.4190591
H           0.0549012    -2.2945472    -1.2961788
H          -0.8176926    -0.9724789    -0.4890615
C           4.5785621     1.3955870     0.4328849
H           4.8202514     2.3250087     0.9307634
N           3.2813044     0.9800671     0.2814435
C           3.3569145    -0.1827122    -0.3508282
N           4.6519409    -0.5078990    -0.6645746
C           5.1237080    -1.6979361    -1.3636468
H           4.3354181    -2.0420391    -2.0328736
H           5.3865379    -2.4916143    -0.6555901
H           6.0071437    -1.4385631    -1.9520768
C           5.4403032     0.4913562    -0.1415313
H           6.5172932     0.4593572    -0.2198101
19
253_C6H9N3O_0-2-11-10 (-45,) energy =    -473.5467780
N           1.1883441    -1.1473719     0.0194128
H           1.2585489    -0.5422312     0.8290836
C           2.1938130    -1.0191967    -0.8930406
O           2.1838678    -1.5355625    -2.0102984
C          -0.1123935    -1.6805021    -0.3461177
H          -0.5330604    -2.2423051     0.4933961
H           0.0270272    -2.3493630    -1.1965953
H          -0.8183124    -0.8899712    -0.6339995
C           4.5325436     1.3184670     0.4957472
H           4.7443802     2.2310304     1.0365330
N           3.2537148     0.8546142     0.3441727
C           3.3656635    -0.2688690    -0.3535463
N           4.6678044    -0.5229062    -0.6996687
C           5.1884237    -1.6627727    -1.4492978
H           4.3831782    -2.0676293    -2.0605955
H           5.5683844    -2.4331079    -0.7694077
H           6.0023349    -1.3236178    -2.0951941
C           5.4211584     0.4814100    -0.1384785
H           6.4965850     0.5026018    -0.2391059
19
253_C6H9N3O_0-2-11-10 (-30,) energy =    -473.5501823
N           1.1042610    -1.1163075    -0.0092945
H           1.1867423    -0.4130076     0.7157556
C           2.1575793    -1.1935925    -0.8691331
O           2.1658109    -1.8751889    -1.8958960
C          -0.2012569    -1.6548840    -0.3408442
H          -0.6606215    -2.0998393     0.5475257
H          -0.0623494    -2.4252373    -1.1008127
H          -0.8757964    -0.8854903    -0.7400363
C           4.5009978     1.1615042     0.4814707
H           4.7146387     2.0579053     1.0479597
N           3.2288231     0.6772851     0.3558426
C           3.3356554    -0.4156823    -0.3911952
N           4.6313773    -0.6350488    -0.7825661
C           5.1593833    -1.7406440    -1.5794778
H           4.3313313    -2.1981294    -2.1178272
H           5.6425809    -2.4811729    -0.9331202
H           5.8942870    -1.3516441    -2.2893963
C           5.3829766     0.3643450    -0.2121500
H           6.4535449     0.4121943    -0.3490942
19
253_C6H9N3O_0-2-11-10 (-15,) energy =    -473.5521807
N           1.0789517    -0.9924316    -0.0687590
H           1.1486667    -0.2268513     0.5913464
C           2.1947450    -1.2426711    -0.8041035
O           2.2539341    -2.0734981    -1.7142459
C          -0.2059657    -1.5886522    -0.3718780
H          -0.6606703    -2.0054211     0.5336540
H          -0.0386128    -2.3907540    -1.0922954
H          -0.8993113    -0.8583894    -0.8091782
C           4.4964950     1.1496153     0.5576311
H           4.6966688     2.0295408     1.1540716
N           3.2360170     0.6406157     0.4279887
C           3.3566537    -0.4216928    -0.3609310
N           4.6557559    -0.6057045    -0.7607904
C           5.2083874    -1.6651928    -1.6041685
H           4.3795086    -2.2016548    -2.0613821
H           5.8114821    -2.3510569    -1.0000877
H           5.8399206    -1.2192493    -2.3779072
C           5.3892091     0.3933733    -0.1680855
H           6.4565257     0.4717084    -0.3159322
19
253_C6H9N3O_0-2-11-10 (0,) energy =    -473.5528609
N           1.0424159    -0.8976293    -0.0283054
H           1.0725013    -0.0741080     0.5605617
C           2.2201613    -1.2730450    -0.5926449
O           2.3661032    -2.2480251    -1.3340334
C          -0.1957447    -1.6173266    -0.2390367
H          -0.5890407    -2.0180630     0.7033902
H           0.0150300    -2.4460022    -0.9169996
H          -0.9581860    -0.9705379    -0.6898417
C           4.4887176     1.2181360     0.6421754
H           4.6988538     2.1017053     1.2296862
N           3.2347341     0.6828702     0.5687931
C           3.3447564    -0.3766008    -0.2244074
N           4.6303851    -0.5458880    -0.6689335
C           5.1510040    -1.5872499    -1.5530893
H           4.6365225    -1.5608769    -2.5145411
H           4.9943773    -2.5727969    -1.1125509
H           6.2187056    -1.4069114    -1.6953976
C           5.3659313     0.4740313    -0.1161687
H           6.4237919     0.5745510    -0.3097566
19
253_C6H9N3O_0-2-11-10 (15,) energy =    -473.5521807
N           1.0768584    -0.9690427    -0.0986996
H           1.1066046    -0.0906225     0.4054884
C           2.2798977    -1.4682547    -0.4883539
O           2.4332114    -2.5672421    -1.0276658
C          -0.1458507    -1.7436184    -0.1569121
H          -0.4782416    -2.0532249     0.8425396
H           0.0533709    -2.6349657    -0.7537255
H          -0.9469595    -1.1642620    -0.6291528
C           4.5131844     1.1164255     0.6103983
H           4.7093357     2.0056937     1.1941845
N           3.2778609     0.5353337     0.5787768
C           3.3963440    -0.5177714    -0.2227085
N           4.6767868    -0.6464281    -0.6973962
C           5.2107802    -1.6489486    -1.6188121
H           5.4173455    -1.1929379    -2.5926865
H           4.4703498    -2.4388910    -1.7266534
H           6.1394835    -2.0575460    -1.2102418
C           5.3921757     0.4025313    -0.1726949
H           6.4393084     0.5396671    -0.4004371
19
253_C6H9N3O_0-2-11-10 (30,) energy =    -473.5501823
N           1.0529662    -0.9511639    -0.2351852
H           1.0596146    -0.0317814     0.1912219
C           2.2775482    -1.5193942    -0.4148729
O           2.4550836    -2.6856469    -0.7715508
C          -0.1665063    -1.7367752    -0.2269035
H          -0.4847584    -1.9939728     0.7923557
H           0.0263521    -2.6599331    -0.7754258
H          -0.9728890    -1.1837357    -0.7189363
C           4.5442142     1.0520623     0.6396684
H           4.7660322     1.9227212     1.2420279
N           3.3025196     0.4803685     0.6333129
C           3.3879974    -0.5481517    -0.2026867
N           4.6545490    -0.6818686    -0.7107758
C           5.1405928    -1.6633668    -1.6785681
H           5.2109103    -1.2149570    -2.6753757
H           4.4447176    -2.5002166    -1.6935025
H           6.1311574    -2.0094047    -1.3712769
C           5.3937817     0.3510510    -0.1857268
H           6.4334761     0.4885047    -0.4451526
19
253_C6H9N3O_0-2-11-10 (45,) energy =    -473.5467780
N           1.1141377    -0.9162608    -0.2976131
H           1.0602601     0.0440525     0.0211102
C           2.3583489    -1.4735475    -0.2610484
O           2.5856579    -2.6702641    -0.4376781
C          -0.0889292    -1.7298762    -0.2770088
H          -0.4665406    -1.8855897     0.7424516
H           0.1562929    -2.7009132    -0.7095340
H          -0.8709042    -1.2522325    -0.8751217
C           4.6045850     1.1257264     0.7691210
H           4.8365908     1.9780346     1.3934930
N           3.3696581     0.5357715     0.7902085
C           3.4372244    -0.4569882    -0.0880984
N           4.6873989    -0.5597634    -0.6416390
C           5.1438187    -1.5115137    -1.6506669
H           5.1017035    -1.0663937    -2.6507327
H           4.5040968    -2.3917176    -1.6058223
H           6.1753767    -1.7979991    -1.4304991
C           5.4322934     0.4668248    -0.1102486
H           6.4588395     0.6294445    -0.4049944
19
253_C6H9N3O_0-2-11-10 (60,) energy =    -473.5423966
N           1.1412123    -0.9324908    -0.3739513
H           1.0498470     0.0603530    -0.1966970
C           2.3755477    -1.4634242    -0.1371367
O           2.6186657    -2.6683398    -0.1345211
C          -0.0595687    -1.7518879    -0.3620678
H          -0.5308134    -1.7813800     0.6292157
H           0.2261146    -2.7666568    -0.6424022
H          -0.7809453    -1.3630378    -1.0869803
C           4.6845290     1.1052281     0.8412877
H           4.9614837     1.9310114     1.4827699
N           3.4436462     0.5276110     0.9122596
C           3.4480093    -0.4271960    -0.0074493
N           4.6650984    -0.5263080    -0.6320672
C           5.0490311    -1.4602557    -1.6845841
H           4.8848067    -1.0243188    -2.6762183
H           4.4571982    -2.3687181    -1.5745733
H           6.1081120    -1.7054975    -1.5741903
C           5.4531678     0.4718164    -0.1064301
H           6.4619030     0.6370642    -0.4560086
19
253_C6H9N3O_0-2-11-10 (75,) energy =    -473.5377781
N           1.1662979    -0.9630926    -0.4161688
H           1.0638514     0.0437171    -0.4042401
C           2.3645082    -1.4505828     0.0180943
O           2.5907518    -2.6409406     0.2141156
C          -0.0365362    -1.7804594    -0.4318525
H          -0.6238138    -1.6675535     0.4886558
H           0.2711080    -2.8229170    -0.5236458
H          -0.6606389    -1.5071892    -1.2880411
C           4.7750770     1.0723582     0.8933279
H           5.1143703     1.8748330     1.5344440
N           3.5316469     0.5115574     1.0458876
C           3.4472411    -0.4116060     0.1013104
N           4.6089872    -0.5100684    -0.6217852
C           4.8897798    -1.4312826    -1.7150045
H           4.5988876    -1.0031366    -2.6807946
H           4.3418798    -2.3585626    -1.5423574
H           5.9599730    -1.6499454    -1.7310256
C           5.4560486     0.4583866    -0.1295773
H           6.4374977     0.6171658    -0.5520639
19
253_C6H9N3O_0-2-11-10 (90,) energy =    -473.5338595
N           1.2341692    -1.0116568    -0.4685434
H           1.1540556    -0.0147938    -0.6209291
C           2.3583167    -1.4421639     0.1760545
O           2.5180418    -2.5882514     0.5789307
C           0.0269888    -1.8207236    -0.5348650
H          -0.6665304    -1.5924328     0.2846584
H           0.3230665    -2.8677002    -0.4578383
H          -0.4813573    -1.6531901    -1.4891561
C           4.8611147     1.0359753     0.9517984
H           5.2565337     1.8172522     1.5869029
N           3.6310563     0.4724289     1.1936471
C           3.4639279    -0.4179134     0.2324620
N           4.5539308    -0.4893001    -0.5979834
C           4.7332902    -1.3849434    -1.7314076
H           4.3483239    -0.9429092    -2.6572184
H           4.2118192    -2.3228305    -1.5306352
H           5.7975873    -1.5976207    -1.8550480
C           5.4488496     0.4579392    -0.1459352
H           6.3935224     0.6246468    -0.6425929
19
253_C6H9N3O_0-2-11-10 (105,) energy =    -473.5320906
N           1.3207962    -1.2012032    -0.5477770
H           1.2809558    -0.2388802    -0.8567653
C           2.3372331    -1.5369331     0.3083069
O           2.3627631    -2.5772875     0.9489548
C           0.1040885    -1.9967695    -0.6225515
H          -0.6204561    -1.7157028     0.1526942
H           0.3722281    -3.0440087    -0.4758661
H          -0.3567052    -1.8707501    -1.6062236
C           4.8308061     0.9824239     0.9886889
H           5.2397204     1.7609606     1.6186630
N           3.6733634     0.3234193     1.3287364
C           3.4612970    -0.5313697     0.3466444
N           4.4309984    -0.4540812    -0.6239963
C           4.5895426    -1.3201338    -1.7831664
H           5.0264427    -0.7494271    -2.6067965
H           3.6104154    -1.6904286    -2.0930135
H           5.2374241    -2.1729151    -1.5536890
C           5.3205674     0.5149490    -0.2050405
H           6.1950121     0.7678025    -0.7867409
19
253_C6H9N3O_0-2-11-10 (120,) energy =    -473.5322511
N           1.4099844    -1.2931137    -0.6332430
H           1.4526763    -0.3897459    -1.0867400
C           2.2929047    -1.5114000     0.3991957
O           2.1458945    -2.3972616     1.2264505
C           0.1547964    -2.0280321    -0.7031070
H          -0.6126723    -1.5991613    -0.0456575
H           0.3399682    -3.0545155    -0.3836660
H          -0.2125239    -2.0257278    -1.7330344
C           4.8763019     0.9154680     1.0331459
H           5.3262332     1.6637421     1.6719000
N           3.7457627     0.2388235     1.4150475
C           3.4690044    -0.5740987     0.4125567
N           4.3736076    -0.4426998    -0.6194609
C           4.4981050    -1.2655234    -1.8158391
H           4.7502440    -0.6333723    -2.6722214
H           3.5474084    -1.7628685    -2.0107438
H           5.2794146    -2.0226169    -1.6891919
C           5.2884546     0.5054524    -0.2107919
H           6.1295582     0.7813982    -0.8302319
19
253_C6H9N3O_0-2-11-10 (135,) energy =    -473.5324300
N           1.5203332    -1.3811524    -0.6381957
H           1.5978618    -0.5514472    -1.2126953
C           2.3016711    -1.4186773     0.4992213
O           2.0366605    -2.1275638     1.4567700
C           0.2446414    -2.0853409    -0.6601350
H          -0.5212697    -1.5771236    -0.0599599
H           0.3899891    -3.0837422    -0.2448974
H          -0.1021402    -2.1675601    -1.6935967
C           4.9950665     0.8877857     1.0709122
H           5.4971347     1.5995132     1.7126942
N           3.8641650     0.2340266     1.4792999
C           3.5127259    -0.5359124     0.4644263
N           4.3833451    -0.4017380    -0.6014373
C           4.4648932    -1.1920948    -1.8253214
H           4.5023299    -0.5319992    -2.6980753
H           3.5865200    -1.8321654    -1.9001035
H           5.3638066    -1.8169206    -1.8147480
C           5.3407399     0.5055025    -0.2026756
H           6.1669712     0.7717738    -0.8462082
19
253_C6H9N3O_0-2-11-10 (150,) energy =    -473.5319899
N           1.6038528    -1.4610089    -0.6380959
H           1.7512979    -0.7351740    -1.3276674
C           2.2565537    -1.3095531     0.5714129
O           1.8533624    -1.8307345     1.5989088
C           0.3073861    -2.1267847    -0.6650066
H          -0.4860123    -1.5152498    -0.2157609
H           0.3785257    -3.0547957    -0.0957718
H           0.0452887    -2.3550888    -1.7015091
C           5.0956879     0.7958376     1.1834908
H           5.6507060     1.4460868     1.8465744
N           3.9242783     0.2118032     1.5724223
C           3.5128606    -0.4987007     0.5349016
N           4.4014479    -0.4038210    -0.5237037
C           4.4021420    -1.1016245    -1.8051733
H           3.9686747    -0.4807296    -2.5986881
H           3.8277619    -2.0239819    -1.7232385
H           5.4322000    -1.3439762    -2.0775592
C           5.4151699     0.4261372    -0.1015788
H           6.2589604     0.6518731    -0.7378089
19
253_C6H9N3O_0-2-11-10 (165,) energy =    -473.5307516
N           1.6326972    -1.5566033    -0.6652964
H           1.8282133    -0.9497343    -1.4506174
C           2.1829129    -1.1948304     0.5534160
O           1.6708027    -1.5220762     1.6119586
C           0.3213437    -2.1955412    -0.6711363
H          -0.4795144    -1.5136291    -0.3567989
H           0.3364677    -3.0364720     0.0237775
H           0.1115401    -2.5619314    -1.6795186
C           5.1456298     0.7123131     1.2058615
H           5.7427715     1.2987043     1.8915370
N           3.9386011     0.1963858     1.5731158
C           3.4765104    -0.4466978     0.5116392
N           4.3776796    -0.3802950    -0.5421778
C           4.3434699    -1.0228746    -1.8513465
H           3.7837285    -0.4239500    -2.5807530
H           3.8875545    -2.0105087    -1.7725890
H           5.3678854    -1.1314001    -2.2133617
C           5.4420340     0.3652174    -0.0912946
H           6.2967118     0.5625691    -0.7224390
19
253_C6H9N3O_0-2-11-10 (180,) energy =    -473.5288588
N           1.6463591    -1.5970645    -0.7444024
H           2.2784669    -2.1759988    -0.2102135
C           1.8229104    -0.2248588    -0.6701523
O           0.8924944     0.5449098    -0.8487128
C           0.2845720    -2.1065095    -0.8667020
H           0.3281038    -3.1824157    -1.0555315
H          -0.2038124    -1.6113307    -1.7072918
H          -0.3182566    -1.9171583     0.0310779
C           4.8030102     1.7241408    -0.2782803
H           5.2699749     2.6960487    -0.1893849
N           3.4521077     1.5889799    -0.3871744
C           3.2142710     0.2880821    -0.4668961
N           4.4020439    -0.4328920    -0.4366446
C           4.6452405    -1.8626578    -0.5801116
H           4.0977020    -2.2603003    -1.4374899
H           4.3610850    -2.4130742     0.3255323
H           5.7130040    -2.0171815    -0.7448264
C           5.4120767     0.4921671    -0.3098190
H           6.4479555     0.1884266    -0.2596443
