32
458_C13H17NO_0-6-19-26 (-165,) energy =    -635.6160770
C           1.2649628    -0.4245741    -0.4072652
C           2.2857089    -0.9290048    -1.4284686
H           3.1338478    -0.2391683    -1.5006200
H           1.8507809    -1.0428909    -2.4209778
H           2.6680910    -1.8991157    -1.0900905
H           1.7544716    -0.4691567     0.5781960
N           0.9087542     1.0092517    -0.5511270
C           0.1516699     1.5010903     0.6128893
H          -0.0617490     2.5630844     0.4863810
H           0.7832061     1.3933797     1.5056275
C          -0.0127558    -1.2788096    -0.3221377
H          -0.5491658    -1.1951917    -1.2752044
H           0.2559362    -2.3349051    -0.1897145
C          -1.1549382     0.7066775     0.7862319
H          -1.6691166     1.0460228     1.6949803
H          -1.8157332     0.9368944    -0.0607070
C          -0.8961911    -0.8072404     0.8457893
H          -0.3919079    -1.0475162     1.7938782
H          -1.8476620    -1.3529829     0.8535853
C           0.6735353     1.5513585    -1.8064628
C           0.6940239     5.8289937    -2.3125677
H           0.7051617     6.9048650    -2.4662361
C           1.4980082     5.2553239    -1.3255005
H           2.1444031     5.8818054    -0.7165503
C           1.4796347     3.8750317    -1.1237787
H           2.1171847     3.4251298    -0.3683189
C           0.6619997     3.0548356    -1.9139822
C          -0.1229961     3.6360039    -2.9189686
H          -0.7250503     2.9878674    -3.5478938
C          -0.1160986     5.0160291    -3.1098164
H          -0.7361567     5.4583835    -3.8849439
O           0.5609858     0.8718662    -2.8246495
32
458_C13H17NO_0-6-19-26 (-150,) energy =    -635.6135770
C           1.2362872    -0.3504991    -0.4377022
C           2.2144774    -0.7783207    -1.5310948
H           2.9835712    -0.0140124    -1.6881736
H           1.7120711    -0.9578621    -2.4817455
H           2.7144851    -1.6991643    -1.2097049
H           1.8086375    -0.2946217     0.5028651
N           0.6939219     1.0161788    -0.5990358
C          -0.0489616     1.4845581     0.5756510
H          -0.3966468     2.5043571     0.3983400
H           0.6277579     1.5094590     1.4431135
C           0.0840128    -1.3473490    -0.2124734
H          -0.5200824    -1.3875149    -1.1277956
H           0.4890019    -2.3534566    -0.0420728
C          -1.2356169     0.5474992     0.8618430
H          -1.7455045     0.8711149     1.7787170
H          -1.9583022     0.6404575     0.0399818
C          -0.7777773    -0.9147741     0.9867624
H          -0.1879449    -1.0277871     1.9089658
H          -1.6473874    -1.5749236     1.0922059
C           0.4764869     1.5784594    -1.8492794
C           0.9094091     5.8349605    -2.3428094
H           1.0275066     6.9049526    -2.4927243
C           1.5734941     5.1988313    -1.2922765
H           2.2171016     5.7701664    -0.6285899
C           1.4190522     3.8260785    -1.0966477
H           1.9493200     3.3265524    -0.2915208
C           0.6045654     3.0758280    -1.9559808
C          -0.0444852     3.7194978    -3.0190971
H          -0.6497633     3.1225548    -3.6938643
C           0.1003132     5.0917936    -3.2070778
H          -0.4122433     5.5830529    -4.0298441
O           0.3170466     0.9077378    -2.8668273
32
458_C13H17NO_0-6-19-26 (-135,) energy =    -635.6096213
C           1.1695686    -0.3058126    -0.5045307
C           2.0678865    -0.7994351    -1.6372414
H           2.7614896    -0.0214245    -1.9705487
H           1.4902474    -1.1249793    -2.5032301
H           2.6595689    -1.6415969    -1.2601043
H           1.8257565    -0.0482865     0.3460177
N           0.4199575     0.9372233    -0.7919855
C          -0.2627861     1.4778821     0.3848067
H          -0.7543463     2.4146054     0.1147663
H           0.4645500     1.7021634     1.1834037
C           0.1900869    -1.3884331    -0.0134474
H          -0.4779945    -1.6503942    -0.8446272
H           0.7492904    -2.2942673     0.2545959
C          -1.2903093     0.4592228     0.9025558
H          -1.7711959     0.8540143     1.8069288
H          -2.0732898     0.3360947     0.1429055
C          -0.6257515    -0.8946496     1.1919147
H           0.0447129    -0.7868772     2.0578096
H          -1.3810750    -1.6380653     1.4744417
C           0.4202795     1.5872965    -2.0166941
C           1.0163601     5.8476172    -2.2417152
H           1.1830046     6.9183422    -2.3255027
C           1.5627257     5.1372849    -1.1714120
H           2.1638411     5.6511024    -0.4259052
C           1.3424751     3.7639987    -1.0585982
H           1.7803863     3.2126284    -0.2319648
C           0.5849999     3.0863851    -2.0231852
C           0.0575113     3.8044641    -3.1059671
H          -0.5008792     3.2628517    -3.8628626
C           0.2623983     5.1779003    -3.2098110
H          -0.1581295     5.7268843    -4.0481350
O           0.4030696     0.9835488    -3.0860482
32
458_C13H17NO_0-6-19-26 (-120,) energy =    -635.6053568
C           1.1345661    -0.2401701    -0.5478359
C           1.9878734    -0.7783751    -1.6952911
H           2.6163554    -0.0013148    -2.1391234
H           1.3708697    -1.2007815    -2.4908133
H           2.6454085    -1.5595265    -1.2968177
H           1.8200724     0.1756838     0.2145692
N           0.2179338     0.8615950    -0.9229946
C          -0.4718528     1.4490002     0.2296884
H          -1.0730293     2.2955498    -0.1101057
H           0.2448672     1.8320401     0.9772771
C           0.3171127    -1.3581588     0.1262849
H          -0.3417459    -1.8034877    -0.6310617
H           0.9996024    -2.1465335     0.4694260
C          -1.3567553     0.3842315     0.8905405
H          -1.8634362     0.8190662     1.7616565
H          -2.1324142     0.0777474     0.1770591
C          -0.5147302    -0.8302906     1.3048499
H           0.1627766    -0.5347691     2.1199755
H          -1.1558571    -1.6249365     1.7054873
C           0.3343097     1.5762205    -2.1181562
C           1.1347385     5.8074657    -2.1504807
H           1.3552691     6.8711353    -2.1845122
C           1.6197297     5.0269611    -1.0999019
H           2.2271260     5.4786372    -0.3201002
C           1.3274157     3.6634071    -1.0490362
H           1.7162655     3.0596735    -0.2348697
C           0.5628556     3.0648788    -2.0592873
C           0.0991465     3.8526344    -3.1231141
H          -0.4656072     3.3725289    -3.9160962
C           0.3722446     5.2172907    -3.1628799
H          -0.0007241     5.8212235    -3.9857381
O           0.3522063     1.0158104    -3.2080921
32
458_C13H17NO_0-6-19-26 (-105,) energy =    -635.6016265
C           1.1855991     0.0990116    -0.2719650
C           2.1789428     0.2266225    -1.4289908
H           2.8341280     1.0934876    -1.3020202
H           1.6681474     0.3230300    -2.3943356
H           2.8029596    -0.6724617    -1.4758212
H           1.7643716    -0.0343402     0.6552737
N           0.4164124     1.3592135    -0.0535719
C          -0.5325998     1.2145148     1.0764909
H          -1.1096741     2.1425734     1.1504898
H           0.0880440     1.1523851     1.9823858
C           0.2703261    -1.1306528    -0.4317884
H          -0.3200012    -1.0224848    -1.3505311
H           0.8958801    -2.0256796    -0.5509723
C          -1.4663445    -0.0033515     1.0122971
H          -2.0325514    -0.0693378     1.9511992
H          -2.1860428     0.1410101     0.2007131
C          -0.6644191    -1.2897577     0.7755001
H          -0.0623359    -1.5174954     1.6686756
H          -1.3389820    -2.1422475     0.6286460
C          -0.2091300     1.9040541    -1.2309035
C           1.6010610     5.3947387    -2.9568159
H           2.0459486     6.2819880    -3.4000158
C           2.0858121     4.9003744    -1.7444165
H           2.9053993     5.4053731    -1.2403354
C           1.5160971     3.7611365    -1.1758151
H           1.8704601     3.3693270    -0.2291615
C           0.4530534     3.1092126    -1.8178274
C          -0.0335982     3.6170339    -3.0341339
H          -0.8622990     3.1062790    -3.5136006
C           0.5389436     4.7510505    -3.6009159
H           0.1600021     5.1372356    -4.5432842
O          -1.2645018     1.4860130    -1.6848623
32
458_C13H17NO_0-6-19-26 (-90,) energy =    -635.6046881
C           1.1557267     0.2163001    -0.2546114
C           2.1528544     0.4312451    -1.3952642
H           2.7913410     1.3011551    -1.2219075
H           1.6504432     0.5663640    -2.3595320
H           2.7938117    -0.4533649    -1.4777256
H           1.7344899     0.0530734     0.6671573
N           0.3118583     1.4161236     0.0349531
C          -0.6047168     1.1468463     1.1699461
H          -1.2266553     2.0351519     1.3122481
H           0.0391302     1.0535806     2.0564895
C           0.2926593    -1.0391485    -0.4941955
H          -0.3092517    -0.8906722    -1.4012109
H           0.9574881    -1.8919632    -0.6856783
C          -1.4794102    -0.1077211     1.0359120
H          -2.0280251    -0.2637858     1.9743479
H          -2.2160496     0.0624475     0.2452868
C          -0.6224299    -1.3340377     0.7012519
H          -0.0012890    -1.6004601     1.5701131
H          -1.2570853    -2.2042123     0.4929384
C          -0.3376402     2.0430127    -1.0674361
C           1.7185369     5.2438476    -3.0665903
H           2.2202467     6.0639035    -3.5737514
C           2.1689328     4.8158840    -1.8162998
H           3.0157849     5.3074232    -1.3448719
C           1.5285546     3.7608409    -1.1659037
H           1.8569274     3.4293104    -0.1869365
C           0.4265091     3.1300484    -1.7605547
C          -0.0304193     3.5773309    -3.0103352
H          -0.8975140     3.0941294    -3.4490741
C           0.6164336     4.6227007    -3.6628907
H           0.2618686     4.9583778    -4.6337117
O          -1.5160629     1.8525080    -1.3420384
32
458_C13H17NO_0-6-19-26 (-75,) energy =    -635.6079550
C           1.1422791     0.2953875    -0.2391179
C           2.1504565     0.5714296    -1.3557810
H           2.7839210     1.4341058    -1.1390240
H           1.6627759     0.7430396    -2.3206960
H           2.7958616    -0.3077148    -1.4610214
H           1.7147394     0.1025898     0.6804170
N           0.2434643     1.4388919     0.1078850
C          -0.6384944     1.0823007     1.2429589
H          -1.2732682     1.9455286     1.4538239
H           0.0234343     0.9320980     2.1077677
C           0.3148596    -0.9708996    -0.5500174
H          -0.2778102    -0.7895327    -1.4579136
H           1.0045196    -1.7942114    -0.7781158
C          -1.4912606    -0.1726843     1.0178648
H          -2.0489458    -0.4012920     1.9355420
H          -2.2227100     0.0432450     0.2326908
C          -0.6081602    -1.3580106     0.6123993
H           0.0081282    -1.6692407     1.4695709
H          -1.2226842    -2.2247438     0.3393502
C          -0.4094796     2.1763914    -0.8993687
C           1.7842907     5.1002210    -3.1621161
H           2.3162596     5.8575487    -3.7319987
C           2.2199466     4.7548389    -1.8814806
H           3.0846189     5.2502948    -1.4479338
C           1.5422168     3.7773289    -1.1521035
H           1.8636088     3.5132145    -0.1498785
C           0.4154148     3.1453525    -1.6955107
C          -0.0329387     3.5180049    -2.9712114
H          -0.9273453     3.0477405    -3.3677276
C           0.6557303     4.4795571    -3.7061637
H           0.3096156     4.7532124    -4.6992555
O          -1.6316889     2.1957758    -1.0124534
32
458_C13H17NO_0-6-19-26 (-60,) energy =    -635.6098202
C           1.1345812     0.3467047    -0.2216891
C           2.1684095     0.6765606    -1.2987645
H           2.7959499     1.5278445    -1.0289154
H           1.7088515     0.8868865    -2.2687476
H           2.8169826    -0.1985101    -1.4190672
H           1.6891063     0.1160976     0.6998591
N           0.1956534     1.4402282     0.1707805
C          -0.6635476     1.0148667     1.2959278
H          -1.2982636     1.8589555     1.5681281
H           0.0073217     0.8017308     2.1400582
C           0.3293818    -0.9140077    -0.6119333
H          -0.2446511    -0.6905329    -1.5226461
H           1.0324629    -1.7174125    -0.8677663
C          -1.5107882    -0.2216613     0.9751778
H          -2.0847899    -0.5140187     1.8639668
H          -2.2307818     0.0483630     0.1948044
C          -0.6154304    -1.3745776     0.5061210
H          -0.0147967    -1.7387986     1.3533070
H          -1.2206144    -2.2239291     0.1658142
C          -0.4344053     2.2982686    -0.7326785
C           1.8040569     4.9665592    -3.2536547
H           2.3459323     5.6643185    -3.8866419
C           2.2464658     4.7136542    -1.9539515
H           3.1259301     5.2224829    -1.5681875
C           1.5570038     3.8101197    -1.1444295
H           1.8894093     3.6181070    -0.1287886
C           0.4116182     3.1619258    -1.6250789
C          -0.0480643     3.4492122    -2.9175843
H          -0.9621027     2.9782708    -3.2662050
C           0.6550768     4.3320025    -3.7343910
H           0.3015388     4.5358343    -4.7415705
O          -1.6490300     2.4885880    -0.7088436
32
458_C13H17NO_0-6-19-26 (-45,) energy =    -635.6100527
C           1.1306927     0.3943089    -0.1980962
C           2.2007839     0.7735560    -1.2214499
H           2.8153653     1.6129033    -0.8913054
H           1.7803512     1.0218380    -2.1992656
H           2.8560532    -0.0956643    -1.3490952
H           1.6584774     0.1164705     0.7260684
N           0.1669473     1.4487408     0.2298463
C          -0.6849663     0.9669979     1.3346397
H          -1.3143681     1.7953472     1.6582236
H          -0.0153011     0.6916850     2.1613361
C           0.3381039    -0.8460364    -0.6742001
H          -0.2114009    -0.5733584    -1.5866007
H           1.0474062    -1.6359493    -0.9535089
C          -1.5339119    -0.2397182     0.9205250
H          -2.1276872    -0.5865054     1.7759234
H          -2.2386391     0.0862454     0.1463194
C          -0.6355913    -1.3659475     0.3932859
H          -0.0561473    -1.7880099     1.2281452
H          -1.2388718    -2.1872984    -0.0127812
C          -0.4151283     2.4265042    -0.5636773
C           1.7883439     4.8683400    -3.3350719
H           2.3206275     5.5114292    -4.0308893
C           2.2541435     4.7152717    -2.0280226
H           3.1431037     5.2473804    -1.6996628
C           1.5771388     3.8807073    -1.1378941
H           1.9329707     3.7659161    -0.1179814
C           0.4212438     3.2020793    -1.5445650
C          -0.0641732     3.3930255    -2.8447441
H          -0.9885413     2.9056380    -3.1401970
C           0.6276065     4.2049440    -3.7419252
H           0.2539427     4.3323577    -4.7544112
O          -1.5904339     2.7613547    -0.4151703
32
458_C13H17NO_0-6-19-26 (-30,) energy =    -635.6094587
C           1.1179616     0.4047806    -0.1854184
C           2.2201932     0.8283274    -1.1556031
H           2.8151218     1.6590242    -0.7711127
H           1.8358178     1.1084822    -2.1389714
H           2.8866563    -0.0317818    -1.2876607
H           1.6215007     0.0764810     0.7359814
N           0.1464924     1.4336202     0.2759443
C          -0.7079294     0.9091273     1.3570339
H          -1.3314537     1.7259771     1.7169066
H          -0.0463508     0.5832357     2.1716922
C           0.3286184    -0.8044769    -0.7390895
H          -0.2022221    -0.4813358    -1.6458993
H           1.0374311    -1.5848853    -1.0450247
C          -1.5607445    -0.2661219     0.8664182
H          -2.1684486    -0.6554222     1.6931320
H          -2.2547253     0.1077393     0.1031054
C          -0.6667508    -1.3701462     0.2853880
H          -0.1034865    -1.8447020     1.1027836
H          -1.2735350    -2.1606205    -0.1733068
C          -0.3616439     2.5260553    -0.3992210
C           1.7617950     4.7622197    -3.4022681
H           2.2736075     5.3529564    -4.1572692
C           2.2459323     4.7266336    -2.0933772
H           3.1308012     5.2972175    -1.8238447
C           1.5942212     3.9601784    -1.1264019
H           1.9689824     3.9360610    -0.1066673
C           0.4470330     3.2291865    -1.4586144
C          -0.0564657     3.3001217    -2.7634506
H          -0.9733900     2.7721065    -3.0095670
C           0.6087949     4.0470637    -3.7351385
H           0.2194165     4.0823335    -4.7491421
O          -1.4662181     2.9956444    -0.1233736
32
458_C13H17NO_0-6-19-26 (-15,) energy =    -635.6088472
C           1.1127101     0.4064513    -0.1951299
C           2.2721500     0.8765199    -1.0740951
H           2.8307897     1.6923798    -0.6085534
H           1.9546678     1.2005418    -2.0668199
H           2.9543661     0.0276223    -1.1988803
H           1.5730225    -0.0303479     0.7038059
N           0.1843098     1.4310430     0.3482692
C          -0.6835483     0.8599553     1.3930700
H          -1.2764803     1.6708047     1.8128882
H          -0.0384339     0.4488846     2.1816902
C           0.2824418    -0.7085028    -0.8664090
H          -0.2349740    -0.2799514    -1.7362886
H           0.9581739    -1.4856923    -1.2464409
C          -1.5757855    -0.2415981     0.8052909
H          -2.1904489    -0.6839404     1.5995484
H          -2.2646878     0.2207799     0.0862464
C          -0.7317378    -1.3222233     0.1126987
H          -0.1827823    -1.8931393     0.8763349
H          -1.3766241    -2.0409732    -0.4077302
C          -0.2251769     2.6341749    -0.1829889
C           1.7016285     4.6308668    -3.4782896
H           2.1659511     5.1584921    -4.3070377
C           2.1674207     4.8222490    -2.1759607
H           2.9929120     5.5035397    -1.9872212
C           1.5724916     4.1442793    -1.1115501
H           1.9302903     4.3014689    -0.0974391
C           0.5109350     3.2616022    -1.3418535
C           0.0303624     3.0919040    -2.6458494
H          -0.8161200     2.4342940    -2.8264036
C           0.6291624     3.7671790    -3.7102148
H           0.2527498     3.6242694    -4.7197215
O          -1.1865990     3.2511662     0.2758032
32
458_C13H17NO_0-6-19-26 (0,) energy =    -635.6092299
C           1.0810972     0.3575050    -0.2447656
C           2.2745314     0.8149350    -1.0859977
H           2.8217094     1.6282946    -0.6008842
H           1.9973694     1.1404304    -2.0894735
H           2.9554076    -0.0383528    -1.1845522
H           1.5159277    -0.1323254     0.6404749
N           0.2023463     1.4006513     0.3393390
C          -0.6834746     0.8344660     1.3698182
H          -1.2413861     1.6571210     1.8142230
H          -0.0597255     0.3757327     2.1501099
C           0.2124117    -0.7019787    -0.9521994
H          -0.2908920    -0.2323240    -1.8085029
H           0.8596296    -1.4919159    -1.3549074
C          -1.6160956    -0.2148072     0.7479289
H          -2.2440647    -0.6595340     1.5304161
H          -2.2908334     0.2944736     0.0468386
C          -0.8201709    -1.3053290     0.0145766
H          -0.2892558    -1.9210708     0.7556735
H          -1.4972623    -1.9810559    -0.5222284
C          -0.0557804     2.6963167    -0.0502971
C           1.6417993     4.6198597    -3.5089387
H           2.0476948     5.1329774    -4.3765956
C           2.0322603     5.0008136    -2.2228623
H           2.7411884     5.8132940    -2.0872249
C           1.5029508     4.3512042    -1.1084572
H           1.7803253     4.6663065    -0.1065902
C           0.6037165     3.2901652    -1.2696952
C           0.2029583     2.9228097    -2.5599851
H          -0.5212860     2.1231586    -2.6928155
C           0.7179630     3.5867003    -3.6747960
H           0.3950098     3.2983066    -4.6716867
O          -0.8257445     3.4201143     0.5820273
32
458_C13H17NO_0-6-19-26 (15,) energy =    -635.6099001
C           1.0521885     0.3551276    -0.2512238
C           2.2508656     0.7972694    -1.0924568
H           2.7953012     1.6211561    -0.6221287
H           1.9810795     1.1009290    -2.1047873
H           2.9326868    -0.0576110    -1.1674069
H           1.4825747    -0.1121994     0.6495586
N           0.1582642     1.4048323     0.2973174
C          -0.7379478     0.8610897     1.3287815
H          -1.3047737     1.6923361     1.7453398
H          -0.1297235     0.4253168     2.1355119
C           0.1998150    -0.7277818    -0.9416210
H          -0.2965306    -0.2845817    -1.8158027
H           0.8581560    -1.5228202    -1.3151173
C          -1.6534465    -0.2094529     0.7185668
H          -2.2909047    -0.6370487     1.5028988
H          -2.3195452     0.2755823    -0.0075713
C          -0.8400672    -1.3139397     0.0272345
H          -0.3143455    -1.9042858     0.7922643
H          -1.5043790    -2.0098294    -0.4996784
C           0.0374616     2.7471506     0.0089040
C           1.6006883     4.6443016    -3.5240369
H           1.9719755     5.1516819    -4.4104404
C           1.9925391     5.0740388    -2.2534903
H           2.6685355     5.9185585    -2.1494669
C           1.5041218     4.4333992    -1.1160472
H           1.7735977     4.7864765    -0.1250781
C           0.6511052     3.3292958    -1.2374326
C           0.2499374     2.9118190    -2.5124675
H          -0.4418854     2.0797189    -2.6132438
C           0.7185282     3.5700527    -3.6508245
H           0.3924424     3.2452436    -4.6354118
O          -0.6047519     3.5081437     0.7338985
32
458_C13H17NO_0-6-19-26 (30,) energy =    -635.6104403
C           1.0401590     0.3382477    -0.2681662
C           2.2339793     0.7685754    -1.1219842
H           2.7757454     1.6078011    -0.6767553
H           1.9582995     1.0441811    -2.1411399
H           2.9209076    -0.0836375    -1.1769258
H           1.4744691    -0.0912963     0.6507358
N           0.1189910     1.3909815     0.2299355
C          -0.7817987     0.8679474     1.2677333
H          -1.3699122     1.7020724     1.6478853
H          -0.1846407     0.4728730     2.1044984
C           0.2149199    -0.7822763    -0.9294736
H          -0.2773430    -0.3779631    -1.8246805
H           0.8926471    -1.5771484    -1.2667328
C          -1.6684437    -0.2382012     0.6811506
H          -2.3131868    -0.6454320     1.4703000
H          -2.3284489     0.2087346    -0.0744145
C          -0.8275518    -1.3536998     0.0443472
H          -0.3034978    -1.9070078     0.8375316
H          -1.4723410    -2.0787552    -0.4671856
C           0.1320856     2.7595034     0.0458486
C           1.5811576     4.6787994    -3.5218710
H           1.9246708     5.1915933    -4.4163565
C           1.9913114     5.1185062    -2.2601996
H           2.6535779     5.9755473    -2.1715049
C           1.5380326     4.4711404    -1.1126422
H           1.8187828     4.8299682    -0.1270830
C           0.7031624     3.3506883    -1.2144457
C           0.2843078     2.9231404    -2.4805319
H          -0.3953724     2.0793851    -2.5632231
C           0.7165697     3.5882362    -3.6291428
H           0.3756178     3.2563538    -4.6062899
O          -0.3925356     3.5258006     0.8544366
32
458_C13H17NO_0-6-19-26 (45,) energy =    -635.6107301
C           1.0323496     0.3263359    -0.3003375
C           2.2070121     0.7448047    -1.1851636
H           2.7540513     1.5971878    -0.7731593
H           1.9073873     0.9942554    -2.2048803
H           2.8978225    -0.1045966    -1.2341139
H           1.4803808    -0.0407199     0.6399815
N           0.0718979     1.3791482     0.1279396
C          -0.8275626     0.8813110     1.1810385
H          -1.4483918     1.7132591     1.5113675
H          -0.2379752     0.5502799     2.0514376
C           0.2445224    -0.8492278    -0.9079226
H          -0.2503909    -0.5033252    -1.8259628
H           0.9483289    -1.6393503    -1.1993694
C          -1.6730922    -0.2779415     0.6416641
H          -2.3202741    -0.6577941     1.4422757
H          -2.3308043     0.1077804    -0.1487370
C          -0.7912848    -1.4016910     0.0819518
H          -0.2618324    -1.8922687     0.9119123
H          -1.4054916    -2.1742907    -0.3965489
C           0.2156944     2.7566595     0.0516536
C           1.5668923     4.7493613    -3.5123646
H           1.8878976     5.2795151    -4.4051292
C           2.0046333     5.1684666    -2.2527580
H           2.6660410     6.0261902    -2.1644159
C           1.5808159     4.4984909    -1.1071687
H           1.8830891     4.8373932    -0.1210440
C           0.7462940     3.3775768    -1.2105378
C           0.3000672     2.9701587    -2.4742639
H          -0.3797819     2.1266922    -2.5537823
C           0.7042347     3.6571909    -3.6199736
H           0.3424088     3.3420067    -4.5951383
O          -0.1954723     3.5003346     0.9411641
32
458_C13H17NO_0-6-19-26 (60,) energy =    -635.6104848
C           1.0138373     0.3084065    -0.2923214
C           2.1721443     0.6955774    -1.2121295
H           2.7254360     1.5648378    -0.8469243
H           1.8475809     0.9051501    -2.2340485
H           2.8656361    -0.1523143    -1.2440973
H           1.4673718     0.0198949     0.6731864
N           0.0199110     1.3711684     0.0381718
C          -0.8952826     0.9197032     1.1025575
H          -1.5462629     1.7545690     1.3622823
H          -0.3275121     0.6628832     2.0120257
C           0.2620571    -0.9231276    -0.8287126
H          -0.2190675    -0.6512716    -1.7784842
H           0.9890336    -1.7148461    -1.0502602
C          -1.7039356    -0.2884159     0.6214652
H          -2.3688708    -0.6219198     1.4280807
H          -2.3428969     0.0267657    -0.2142483
C          -0.7853519    -1.4302237     0.1711782
H          -0.2690239    -1.8466653     1.0484494
H          -1.3690093    -2.2493528    -0.2664843
C           0.3001717     2.7398906     0.0608833
C           1.5463519     4.8142733    -3.4932690
H           1.8441686     5.3633370    -4.3826816
C           2.0098114     5.2133831    -2.2361783
H           2.6684349     6.0731199    -2.1466458
C           1.6169862     4.5184055    -1.0947784
H           1.9416180     4.8369508    -0.1091106
C           0.7841932     3.3958329    -1.2008012
C           0.3130236     3.0077604    -2.4619386
H          -0.3643277     2.1627449    -2.5385888
C           0.6890523     3.7179541    -3.6028818
H           0.3085145     3.4186798    -4.5759258
O           0.0170959     3.4425151     1.0276718
32
458_C13H17NO_0-6-19-26 (75,) energy =    -635.6092535
C           0.9961626     0.2965924    -0.2724380
C           2.1561677     0.6380493    -1.2088024
H           2.7261340     1.5083774    -0.8720148
H           1.8209608     0.8281429    -2.2320240
H           2.8384166    -0.2191604    -1.2285900
H           1.4363050     0.0755720     0.7173280
N          -0.0061064     1.3841647    -0.0530484
C          -0.9578436     0.9946801     1.0083585
H          -1.6164290     1.8440605     1.1985642
H          -0.4262016     0.7881938     1.9515898
C           0.2596151    -0.9675275    -0.7481790
H          -0.1844020    -0.7597367    -1.7316219
H           0.9925719    -1.7722311    -0.8885137
C          -1.7581719    -0.2332377     0.5695269
H          -2.4622108    -0.5080274     1.3649531
H          -2.3543125     0.0299471    -0.3143738
C          -0.8283877    -1.4059927     0.2396263
H          -0.3516099    -1.7610574     1.1648573
H          -1.3960173    -2.2525783    -0.1656653
C           0.4149453     2.7260423     0.0592935
C           1.5011717     4.9132631    -3.4781352
H           1.7638618     5.4872507    -4.3629144
C           1.9919252     5.2944649    -2.2255846
H           2.6366493     6.1646072    -2.1357025
C           1.6468447     4.5656497    -1.0904636
H           1.9978102     4.8623725    -0.1071174
C           0.8277018     3.4321362    -1.1980685
C           0.3312565     3.0606421    -2.4550215
H          -0.3323205     2.2052489    -2.5278392
C           0.6640511     3.8015029    -3.5895595
H           0.2651978     3.5145409    -4.5589363
O           0.2912807     3.3586962     1.1017724
32
458_C13H17NO_0-6-19-26 (90,) energy =    -635.6070428
C           1.0247167     0.2295731    -0.2562405
C           2.1881808     0.5217349    -1.2064834
H           2.7672928     1.3991649    -0.9037450
H           1.8427498     0.6814793    -2.2325349
H           2.8657417    -0.3392102    -1.2047383
H           1.4495179     0.0769873     0.7535128
N           0.0249670     1.3372975    -0.1563568
C          -0.9749540     1.0219641     0.8900814
H          -1.6346946     1.8873478     0.9962348
H          -0.4890899     0.8691602     1.8669656
C           0.2966212    -1.0605674    -0.6681391
H          -0.1019723    -0.9218938    -1.6827278
H           1.0281875    -1.8772758    -0.7176045
C          -1.7722342    -0.2210936     0.4943094
H          -2.5191282    -0.4333223     1.2695644
H          -2.3182552    -0.0140545    -0.4356572
C          -0.8399453    -1.4209577     0.2958738
H          -0.4120880    -1.7104321     1.2666346
H          -1.3954052    -2.2911080    -0.0750134
C           0.5655917     2.6462281     0.0302742
C           1.3971247     5.0166729    -3.4537830
H           1.6010708     5.6329765    -4.3255508
C           1.9200589     5.3748282    -2.2070146
H           2.5311315     6.2680929    -2.1093722
C           1.6530500     4.5902296    -1.0889542
H           2.0360262     4.8600478    -0.1099706
C           0.8728018     3.4293641    -1.2078076
C           0.3463647     3.0791560    -2.4591981
H          -0.2802494     2.1974135    -2.5355921
C           0.6064879     3.8725223    -3.5767850
H           0.1872610     3.6012554    -4.5420145
O           0.6355544     3.1688528     1.1333840
32
458_C13H17NO_0-6-19-26 (105,) energy =    -635.6048525
C           1.0447825     0.1485317    -0.2172887
C           2.2290947     0.3677594    -1.1623848
H           2.8219934     1.2468819    -0.8903187
H           1.8919596     0.4913530    -2.1970858
H           2.8921809    -0.5032474    -1.1195458
H           1.4392635     0.0578698     0.8120850
N           0.0770687     1.2846084    -0.2510548
C          -1.0035617     1.0769816     0.7429986
H          -1.6469628     1.9631667     0.7276602
H          -0.5925665     0.9920316     1.7618326
C           0.3008440    -1.1491418    -0.5692310
H          -0.0409438    -1.0782474    -1.6112019
H           1.0092802    -1.9859839    -0.5179001
C          -1.8089809    -0.1735863     0.3927181
H          -2.6106563    -0.3061549     1.1301235
H          -2.2858060    -0.0306375    -0.5860056
C          -0.8966570    -1.4043180     0.3535207
H          -0.5334183    -1.6174374     1.3692946
H          -1.4513473    -2.2917326     0.0246108
C           0.7164981     2.5599896    -0.0182278
C           1.2516770     5.1487970    -3.3972066
H           1.3880046     5.8151342    -4.2451121
C           1.8118554     5.4731776    -2.1568202
H           2.3837828     6.3899127    -2.0416242
C           1.6350069     4.6226695    -1.0703334
H           2.0546629     4.8575720    -0.0974920
C           0.9014799     3.4332863    -1.2145943
C           0.3391812     3.1155838    -2.4594652
H          -0.2386815     2.2030595    -2.5515030
C           0.5141765     3.9726337    -3.5458967
H           0.0722237     3.7250419    -4.5072747
O           1.0168289     2.9378882     1.1021617
32
458_C13H17NO_0-6-19-26 (120,) energy =    -635.6045650
C           1.1157788     0.0485228    -0.1603110
C           2.3388770     0.1573642    -1.0745663
H           2.9633000     1.0210563    -0.8246217
H           2.0348810     0.2432870    -2.1238607
H           2.9594633    -0.7392635    -0.9688902
H           1.4660773    -0.0052236     0.8864883
N           0.2244526     1.2282570    -0.3210244
C          -0.9561070     1.1657643     0.5696016
H          -1.5428365     2.0789868     0.4141101
H          -0.6464762     1.1535009     1.6290912
C           0.3125302    -1.2234355    -0.4725772
H           0.0391141    -1.2083205    -1.5369591
H           0.9612391    -2.0952765    -0.3186302
C          -1.8005222    -0.0687187     0.2561548
H          -2.6605377    -0.1013122     0.9368668
H          -2.1944012     0.0164815    -0.7652305
C          -0.9547710    -1.3406584     0.3827526
H          -0.6725577    -1.4850969     1.4356794
H          -1.5348914    -2.2237648     0.0877677
C           0.9256022     2.4776047    -0.0936806
C           1.0382625     5.2781160    -3.3382954
H           1.0739355     5.9948936    -4.1547018
C           1.6612825     5.5757317    -2.1211403
H           2.1797041     6.5220024    -1.9924493
C           1.6160577     4.6598524    -1.0755407
H           2.0904638     4.8695034    -0.1223206
C           0.9499044     3.4332473    -1.2377504
C           0.3263737     3.1413983    -2.4596620
H          -0.1838377     2.1910654    -2.5674058
C           0.3712679     4.0629494    -3.5055663
H          -0.1129680     3.8332550    -4.4508619
O           1.4670406     2.7286171     0.9694231
32
458_C13H17NO_0-6-19-26 (135,) energy =    -635.6079487
C           1.0647212    -0.4611779    -0.5511730
C           1.7926650    -0.7007696    -1.8766115
H           2.8069360    -0.3010662    -1.8638651
H           1.2445190    -0.2389054    -2.7067862
H           1.8444019    -1.7789416    -2.0636687
H           1.6792461    -0.8865120     0.2629781
N           0.8200784     0.9725393    -0.2907368
C          -0.0300842     1.3259552     0.8518194
H          -0.1792907     2.4100952     0.8396980
H           0.4987748     1.0874839     1.7924050
C          -0.2885648    -1.1990628    -0.5560364
H          -0.8459506    -0.8960907    -1.4540612
H          -0.0906777    -2.2740708    -0.6499311
C          -1.3695497     0.5894516     0.8346452
H          -1.9173885     0.8167550     1.7577473
H          -1.9787268     0.9545835    -0.0034383
C          -1.1387678    -0.9175390     0.6871338
H          -0.6229561    -1.2973636     1.5813476
H          -2.0941866    -1.4525612     0.6235214
C           1.7537738     1.9343915    -0.7118267
C           0.3210260     5.4472925    -2.7447737
H          -0.0220452     6.3333930    -3.2725092
C           1.6195044     5.3984881    -2.2284129
H           2.2866022     6.2472916    -2.3527598
C           2.0596656     4.2614911    -1.5566661
H           3.0678232     4.1993113    -1.1598162
C           1.2061382     3.1604286    -1.3884334
C          -0.0934425     3.2155563    -1.9105720
H          -0.7436258     2.3535042    -1.8042157
C          -0.5321895     4.3534451    -2.5881231
H          -1.5376983     4.3834099    -2.9994053
O           2.9626869     1.7339781    -0.6898272
32
458_C13H17NO_0-6-19-26 (150,) energy =    -635.6127734
C           1.0849107    -0.4847447    -0.5397074
C           1.7902413    -0.8594057    -1.8479016
H           2.7888790    -0.4296735    -1.9136665
H           1.2032166    -0.5176675    -2.7090161
H           1.8714584    -1.9504923    -1.9070015
H           1.7411048    -0.7583111     0.3050900
N           0.7639266     0.9596858    -0.4599281
C          -0.0797690     1.3754842     0.6748952
H          -0.2708974     2.4473312     0.5840336
H           0.4795577     1.2280044     1.6161030
C          -0.2221273    -1.2952964    -0.4221140
H          -0.8021220    -1.1471285    -1.3442456
H           0.0427310    -2.3589432    -0.3806290
C          -1.3863102     0.5888539     0.7488404
H          -1.9439040     0.9019167     1.6403903
H          -2.0078273     0.8262678    -0.1252961
C          -1.0861946    -0.9118355     0.7825919
H          -0.5544225    -1.1556503     1.7140290
H          -2.0139145    -1.4969640     0.7865445
C           1.7089483     1.8934549    -0.9028593
C           0.3160196     5.5966530    -2.5990946
H          -0.0161641     6.5317340    -3.0424888
C           1.6074796     5.4901962    -2.0747981
H           2.2807294     6.3425506    -2.1088668
C           2.0347924     4.2898164    -1.5129865
H           3.0398923     4.1824995    -1.1177679
C           1.1721891     3.1855941    -1.4567793
C          -0.1196838     3.2972558    -1.9895879
H          -0.7761677     2.4329047    -1.9756529
C          -0.5438672     4.4972321    -2.5606130
H          -1.5429457     4.5717709    -2.9817718
O           2.9100353     1.6540081    -0.9620317
32
458_C13H17NO_0-6-19-26 (165,) energy =    -635.6147858
C           1.0906853    -0.5181738    -0.5602591
C           1.7735295    -1.0247701    -1.8378897
H           2.7521984    -0.5736255    -1.9887640
H           1.1474320    -0.8080810    -2.7118344
H           1.8906846    -2.1123239    -1.7701791
H           1.7861414    -0.6364439     0.2879593
N           0.6926994     0.9116672    -0.6537665
C          -0.1457418     1.3899363     0.4700418
H          -0.3900317     2.4385699     0.2983502
H           0.4444459     1.3451448     1.4025093
C          -0.1610939    -1.3837252    -0.3046348
H          -0.7634211    -1.3898873    -1.2242819
H           0.1732298    -2.4151334    -0.1393601
C          -1.4110432     0.5571757     0.6503265
H          -1.9769496     0.9488378     1.5047810
H          -2.0479279     0.6594987    -0.2388231
C          -1.0345847    -0.9106119     0.8593363
H          -0.4852575    -1.0138058     1.8064935
H          -1.9293492    -1.5395792     0.9423561
C           1.6448243     1.8257383    -1.1172807
C           0.3559202     5.7159961    -2.4365501
H           0.0515900     6.6993547    -2.7852844
C           1.6258003     5.5321985    -1.8828889
H           2.3104500     6.3720121    -1.7997823
C           2.0199945     4.2698798    -1.4446774
H           3.0116744     4.1042016    -1.0358780
C           1.1406874     3.1823820    -1.5343682
C          -0.1289784     3.3713838    -2.0986350
H          -0.7977587     2.5216921    -2.1994157
C          -0.5176385     4.6324023    -2.5506421
H          -1.4989663     4.7678053    -2.9975929
O           2.8329637     1.5535028    -1.2514590
32
458_C13H17NO_0-6-19-26 (180,) energy =    -635.6157539
C           1.2785025    -0.4961037    -0.3811136
C           2.3169318    -1.1061132    -1.3257037
H           3.2326188    -0.5048321    -1.3310190
H           1.9498063    -1.1789353    -2.3484229
H           2.5737520    -2.1082166    -0.9618412
H           1.6782211    -0.6123184     0.6374080
N           1.1017371     0.9766104    -0.5166955
C           0.3409529     1.5100273     0.6326843
H           0.2629261     2.5934674     0.5546637
H           0.9107360     1.2855403     1.5437855
C          -0.0931584    -1.1924952    -0.4155363
H          -0.5493590    -1.0169174    -1.3973340
H           0.0424693    -2.2766005    -0.3100649
C          -1.0591200     0.8762584     0.7060971
H          -1.5782615     1.2437841     1.6008787
H          -1.6386939     1.2200002    -0.1618760
C          -0.9925871    -0.6591226     0.7127553
H          -0.5880032    -0.9959206     1.6789244
H          -2.0018104    -1.0817163     0.6345323
C           0.9118160     1.5272700    -1.7749459
C           0.4588746     5.7850860    -2.2588331
H           0.3490010     6.8559211    -2.4083726
C           1.3884620     5.2995077    -1.3368519
H           2.0121623     5.9902671    -0.7756506
C           1.5241916     3.9252340    -1.1390680
H           2.2573157     3.5462877    -0.4322800
C           0.7367730     3.0231590    -1.8687385
C          -0.1708808     3.5174550    -2.8143632
H          -0.7448369     2.8113338    -3.4061399
C          -0.3203430     4.8910393    -2.9972450
H          -1.0369917     5.2648005    -3.7236600
O           0.9058348     0.8624167    -2.8087606
