31
122_C16H12N2O_8-7-16-17 (-165,) energy =    -801.6588829
C           5.2691296     1.5845294     1.8333116
H           5.9700373     2.3609576     2.1219438
C           5.4950931     0.2496163     2.1105541
H           6.3983434    -0.0504180     2.6354684
C           4.5807698    -0.7199749     1.6857015
H           4.7916296    -1.7725643     1.8450447
C           3.4140825    -0.3661982     1.0068339
C           3.1210967     1.0131920     0.7740078
C           4.1042685     1.9796620     1.1551707
O           3.9812845     3.3002491     0.9326948
H           3.1460938     3.4344108     0.4067023
C          -0.5227982     2.3342259    -0.8412666
H          -1.4626938     2.6739144    -1.2617064
C           0.5728713     3.1764489    -0.7072049
H           0.5332091     4.2198429    -1.0136987
N           1.7330770     2.7555812    -0.1975564
C           1.8316080     1.4634765     0.2067791
N           0.8058203     0.5948898     0.1342572
C          -0.3395079     1.0276560    -0.3828922
H          -1.1491027     0.2999435    -0.4265851
C           1.2645617    -3.7872309    -0.4878953
H           0.7476099    -4.6658979    -0.8647455
C           1.3565275    -3.5601516     0.8854369
H           0.9083152    -4.2608595     1.5854441
C           2.0269618    -2.4349236     1.3682097
H           2.0950640    -2.2602741     2.4386041
C           2.6020732    -1.5108424     0.4863510
C           2.5145475    -1.7552942    -0.8926389
H           2.9769110    -1.0583423    -1.5868208
C           1.8509387    -2.8810944    -1.3754445
H           1.7977356    -3.0564225    -2.4471284
31
122_C16H12N2O_8-7-16-17 (-150,) energy =    -801.6594142
C           5.2295108     1.5885542     1.9170535
H           5.9152889     2.3713419     2.2243372
C           5.4440265     0.2583192     2.2329784
H           6.3213939    -0.0260445     2.8080959
C           4.5604247    -0.7261363     1.7793572
H           4.7732520    -1.7743560     1.9635055
C           3.4249953    -0.3882387     1.0404249
C           3.1480284     0.9825027     0.7640811
C           4.1038173     1.9614065     1.1663165
O           3.9835157     3.2742991     0.8870643
H           3.2254836     3.3723947     0.2541808
C          -0.5078206     2.2832685    -0.8213161
H          -1.4538724     2.6183528    -1.2317415
C           0.6487002     3.0456895    -0.9183941
H           0.6517161     4.0205970    -1.4019218
N           1.8180908     2.6283861    -0.4235369
C           1.8557382     1.4226823     0.1950046
N           0.7700023     0.6473287     0.3770909
C          -0.3816690     1.0739393    -0.1334914
H          -1.2442324     0.4279141     0.0256073
C           1.2626397    -3.7498165    -0.5619141
H           0.7378315    -4.6106613    -0.9678183
C           1.4347630    -3.6164618     0.8165130
H           1.0394174    -4.3718514     1.4909399
C           2.1135899    -2.5139761     1.3362421
H           2.2373400    -2.4091287     2.4106556
C           2.6213128    -1.5190889     0.4889252
C           2.4503580    -1.6686816    -0.8963809
H           2.8616510    -0.9189251    -1.5672850
C           1.7768581    -2.7719871    -1.4167839
H           1.6606745    -2.8733289    -2.4929708
31
122_C16H12N2O_8-7-16-17 (-135,) energy =    -801.6579914
C           5.1799346     1.6063748     1.9860265
H           5.8365042     2.3999481     2.3276291
C           5.4093946     0.2761255     2.3019325
H           6.2690426     0.0076424     2.9104163
C           4.5676558    -0.7250005     1.8093869
H           4.7920774    -1.7693548     2.0021064
C           3.4527768    -0.4032087     1.0304169
C           3.1761615     0.9587630     0.7358709
C           4.0822549     1.9557603     1.1876537
O           3.9363882     3.2672330     0.8924828
H           3.2614505     3.3322885     0.1749164
C          -0.4942630     2.2568905    -0.8018807
H          -1.4462959     2.5949326    -1.1960471
C           0.6960454     2.9126953    -1.0893891
H           0.7193330     3.8060442    -1.7105637
N           1.8738608     2.4900536    -0.6160139
C           1.8767614     1.3847681     0.1655007
N           0.7649244     0.7343484     0.5555682
C          -0.3945397     1.1627849     0.0603935
H          -1.2827070     0.6201197     0.3815019
C           1.2457874    -3.7133854    -0.6151175
H           0.7043141    -4.5584466    -1.0320732
C           1.4793391    -3.6365286     0.7589997
H           1.1141445    -4.4195509     1.4186664
C           2.1777484    -2.5540581     1.2930946
H           2.3443838    -2.4908878     2.3648558
C           2.6484740    -1.5235161     0.4656135
C           2.4128186    -1.6156907    -0.9155291
H           2.7943753    -0.8391498    -1.5733392
C           1.7179229    -2.6989998    -1.4507099
H           1.5527948    -2.7555552    -2.5237153
31
122_C16H12N2O_8-7-16-17 (-120,) energy =    -801.6544974
C           5.1264446     1.6078005     2.0549152
H           5.7507782     2.4111241     2.4323132
C           5.3828713     0.2760540     2.3532195
H           6.2316610     0.0199189     2.9818619
C           4.5827245    -0.7375902     1.8220687
H           4.8240577    -1.7787777     2.0119358
C           3.4798083    -0.4286798     1.0179613
C           3.1924536     0.9267146     0.7248632
C           4.0453012     1.9374050     1.2299085
O           3.8593452     3.2516007     0.9425756
H           3.2650148     3.2997361     0.1628874
C          -0.4770493     2.2412907    -0.7934076
H          -1.4292185     2.5886805    -1.1794060
C           0.7322264     2.7518413    -1.2497363
H           0.7705226     3.5388866    -2.0007230
N           1.9108373     2.3171652    -0.7860439
C           1.8862988     1.3414555     0.1492629
N           0.7676869     0.8551360     0.7148114
C          -0.3934746     1.2918097     0.2263730
H          -1.2919610     0.8815128     0.6853561
C           1.2402948    -3.7013192    -0.6570707
H           0.6862213    -4.5346761    -1.0809035
C           1.5288338    -3.6708095     0.7086115
H           1.1932733    -4.4779104     1.3547899
C           2.2421014    -2.6030480     1.2518493
H           2.4480843    -2.5747394     2.3181641
C           2.6765155    -1.5418346     0.4422050
C           2.3833679    -1.5868015    -0.9306957
H           2.7354217    -0.7871378    -1.5769268
C           1.6719819    -2.6552658    -1.4748355
H           1.4629884    -2.6750497    -2.5414321
31
122_C16H12N2O_8-7-16-17 (-105,) energy =    -801.6497813
C           5.0848332     1.6143562     2.1179648
H           5.6821576     2.4231118     2.5262745
C           5.3779277     0.2800305     2.3764422
H           6.2295732     0.0291814     3.0032287
C           4.6082982    -0.7380667     1.8129922
H           4.8715654    -1.7777002     1.9814068
C           3.5015576    -0.4349163     1.0084788
C           3.1897123     0.9176452     0.7477247
C           3.9988642     1.9325888     1.2982727
O           3.7610280     3.2535836     1.0523692
H           3.2164417     3.3139046     0.2452082
C          -0.4639325     2.2382429    -0.8049499
H          -1.4114597     2.5902629    -1.1985934
C           0.7467576     2.5477082    -1.4144578
H           0.7909129     3.1752678    -2.3030753
N           1.9203324     2.1071391    -0.9407153
C           1.8797493     1.3266112     0.1590500
N           0.7731988     1.0495801     0.8682763
C          -0.3843969     1.4878104     0.3683233
H          -1.2780355     1.2456778     0.9418515
C           1.2409738    -3.6805268    -0.6913067
H           0.6781614    -4.5052593    -1.1204175
C           1.5780778    -3.6892450     0.6636000
H           1.2719054    -4.5183938     1.2962703
C           2.3014988    -2.6320678     1.2137890
H           2.5436196    -2.6341499     2.2728360
C           2.6996836    -1.5426423     0.4221376
C           2.3565189    -1.5477737    -0.9402621
H           2.6792462    -0.7268212    -1.5744282
C           1.6341327    -2.6058992    -1.4909234
H           1.3867661    -2.5946919    -2.5493823
31
122_C16H12N2O_8-7-16-17 (-90,) energy =    -801.6458004
C           5.0957352     1.5855119     2.1634623
H           5.6868402     2.3836850     2.6006563
C           5.4278566     0.2461493     2.3334062
H           6.3050976    -0.0204715     2.9167601
C           4.6561275    -0.7544549     1.7437950
H           4.9376102    -1.7971366     1.8541130
C           3.5210052    -0.4315007     0.9862107
C           3.1741073     0.9253089     0.8148263
C           3.9715809     1.9214237     1.4054102
O           3.6895724     3.2536741     1.2727139
H           3.0553997     3.3708364     0.5470970
C          -0.4569976     2.1993924    -0.8413113
H          -1.3991537     2.5322933    -1.2639278
C           0.7276198     2.2282551    -1.5701965
H           0.7544312     2.6005357    -2.5931716
N           1.8949182     1.8116400    -1.0609709
C           1.8709530     1.3446324     0.2016690
N           0.7956564     1.3320938     1.0068761
C          -0.3579285     1.7433493     0.4722068
H          -1.2280476     1.7171049     1.1265835
C           1.2445084    -3.6566816    -0.7345066
H           0.6776728    -4.4768979    -1.1670625
C           1.5801038    -3.6720912     0.6206180
H           1.2700662    -4.5022252     1.2501169
C           2.3088631    -2.6202185     1.1743461
H           2.5539837    -2.6283345     2.2327825
C           2.7128588    -1.5299040     0.3864557
C           2.3712117    -1.5274756    -0.9761446
H           2.6945731    -0.7033687    -1.6046579
C           1.6440793    -2.5813429    -1.5298862
H           1.3974525    -2.5656119    -2.5885167
31
122_C16H12N2O_8-7-16-17 (-75,) energy =    -801.6486469
C           5.2159794     1.5747324     1.9865634
H           5.8177898     2.3555426     2.4401424
C           5.7216252     0.3025680     1.7425619
H           6.7486552     0.0714302     2.0124242
C           4.9137491    -0.6860861     1.1806511
H           5.3038173    -1.6883147     1.0324562
C           3.5876816    -0.4099209     0.8185467
C           3.0686032     0.8812273     1.0562863
C           3.8909397     1.8585398     1.6484865
O           3.4289829     3.1174712     1.9152881
H           2.4565598     3.0866017     1.9386400
C          -0.5984112     2.0639383    -0.5761588
H          -1.5530496     2.3529366    -1.0028137
C           0.4995085     1.7429300    -1.3740758
H           0.4343018     1.7780562    -2.4606166
N           1.6803045     1.3818741    -0.8653963
C           1.7677046     1.3324082     0.4734348
N           0.7749374     1.6299336     1.3342291
C          -0.3948820     2.0043538     0.7982568
H          -1.1884139     2.2548051     1.5005231
C           1.2357246    -3.5907603    -0.8809821
H           0.6481856    -4.4008031    -1.3049566
C           0.7243091    -2.8256331     0.1687715
H          -0.2610767    -3.0441085     0.5725263
C           1.4774892    -1.7857738     0.7132109
H           1.0814628    -1.2080641     1.5434368
C           2.7584023    -1.4905879     0.2177782
C           3.2625479    -2.2708917    -0.8351680
H           4.2449691    -2.0438022    -1.2396177
C           2.5084822    -3.3089892    -1.3809024
H           2.9141102    -3.8951215    -2.2015413
31
122_C16H12N2O_8-7-16-17 (-60,) energy =    -801.6532649
C           5.1822621     1.5575564     2.0369531
H           5.7709304     2.3275230     2.5249526
C           5.7081137     0.3057384     1.7417642
H           6.7385056     0.0802518     2.0037653
C           4.9144808    -0.6758695     1.1455567
H           5.3167486    -1.6686706     0.9695468
C           3.5872670    -0.4058257     0.7890241
C           3.0460754     0.8713273     1.0680396
C           3.8511117     1.8366686     1.7139077
O           3.3667472     3.0643886     2.0487711
H           2.3898584     3.0061091     2.0527302
C          -0.5958057     2.1100674    -0.5707768
H          -1.5475552     2.4147501    -0.9925023
C           0.4084049     1.5353129    -1.3505765
H           0.2690802     1.3810829    -2.4196383
N           1.5831282     1.1502859    -0.8484610
C           1.7660548     1.3360463     0.4688035
N           0.8670921     1.8955001     1.3069308
C          -0.2972505     2.2887706     0.7754378
H          -1.0068544     2.7527672     1.4582898
C           1.2748236    -3.6174858    -0.9055328
H           0.6979857    -4.4371883    -1.3256299
C           0.7634339    -2.8692427     0.1566372
H          -0.2111280    -3.1101727     0.5736581
C           1.5039465    -1.8181282     0.6956888
H           1.1085840    -1.2531587     1.5355452
C           2.7705146    -1.4930493     0.1829998
C           3.2753703    -2.2569938    -0.8808428
H           4.2471490    -2.0077639    -1.2977563
C           2.5341948    -3.3069065    -1.4217947
H           2.9395782    -3.8800557    -2.2516826
31
122_C16H12N2O_8-7-16-17 (-45,) energy =    -801.6573097
C           5.5948837     1.4585901     0.9729915
H           6.3508991     2.2266938     1.0993753
C           5.9005813     0.1074049     1.0433912
H           6.9253002    -0.2035729     1.2292914
C           4.8953311    -0.8550613     0.9183685
H           5.1310040    -1.9073953     1.0420217
C           3.5711249    -0.4807454     0.6699093
C           3.2482880     0.8967817     0.5557615
C           4.2719758     1.8608437     0.7504559
O           4.0306300     3.1933636     0.7251503
H           3.0561017     3.3163229     0.8009801
C          -0.4468899     2.2040650    -0.9076139
H          -1.4105741     2.5359675    -1.2781235
C           0.1892156     1.0678268    -1.4110467
H          -0.2629409     0.4790044    -2.2080121
N           1.3714611     0.6431639    -0.9666843
C           1.9466356     1.3573141     0.0164804
N           1.4217840     2.4839828     0.5516698
C           0.2416627     2.9002966     0.0785671
H          -0.1553310     3.8162810     0.5121340
C           0.6506832    -3.6437127     0.6326280
H          -0.0770747    -4.4508855     0.6358869
C           0.4683165    -2.5289740     1.4537764
H          -0.3989763    -2.4686310     2.1064456
C           1.4023348    -1.4943199     1.4498085
H           1.2645395    -0.6381151     2.1049411
C           2.5364495    -1.5521968     0.6239198
C           2.7129491    -2.6817500    -0.1893211
H           3.5806859    -2.7353020    -0.8409250
C           1.7773321    -3.7158844    -0.1883924
H           1.9275384    -4.5779809    -0.8332703
31
122_C16H12N2O_8-7-16-17 (-30,) energy =    -801.6592900
C           5.5661446     1.4562549     1.0556135
H           6.3161414     2.2217205     1.2260697
C           5.8715101     0.1064519     1.0993106
H           6.8900371    -0.2107483     1.3075576
C           4.8684150    -0.8509709     0.9194805
H           5.0968817    -1.9063140     1.0295295
C           3.5525252    -0.4704193     0.6474555
C           3.2306108     0.9124045     0.5343062
C           4.2508391     1.8713571     0.7986120
O           4.0330372     3.2024038     0.7957667
H           3.0523945     3.3397039     0.7531691
C          -0.4560074     2.2609054    -0.9304617
H          -1.4122636     2.6075032    -1.3063097
C           0.0692422     1.0125021    -1.2720243
H          -0.4672273     0.3450704    -1.9453092
N           1.2401603     0.5707010    -0.8203930
C           1.9251002     1.3745508     0.0142731
N           1.5101288     2.6137800     0.3731397
C           0.3374461     3.0444277    -0.1025416
H           0.0363773     4.0468675     0.1953857
C           0.6976743    -3.6938420     0.6202820
H          -0.0101181    -4.5185669     0.6293849
C           0.5329054    -2.6155500     1.4927754
H          -0.3005919    -2.6017708     2.1906392
C           1.4409797    -1.5585598     1.4813909
H           1.3167031    -0.7298292     2.1736136
C           2.5305960    -1.5568437     0.5962550
C           2.6932231    -2.6509590    -0.2654237
H           3.5304451    -2.6603810    -0.9579470
C           1.7821249    -3.7073354    -0.2580659
H           1.9201378    -4.5416117    -0.9412022
31
122_C16H12N2O_8-7-16-17 (-15,) energy =    -801.6590803
C           5.5359370     1.4578051     1.1336199
H           6.2816431     2.2202012     1.3338421
C           5.8331658     0.1086491     1.1822034
H           6.8413793    -0.2165660     1.4254351
C           4.8304053    -0.8402316     0.9570395
H           5.0481479    -1.8978402     1.0660972
C           3.5263913    -0.4528640     0.6459229
C           3.2135900     0.9346664     0.5119584
C           4.2347777     1.8856213     0.8223805
O           4.0463626     3.2173741     0.8069097
H           3.0795470     3.3764090     0.6300225
C          -0.4716315     2.3164164    -0.9475750
H          -1.4226474     2.6730808    -1.3269700
C          -0.0645530     0.9873172    -1.0859243
H          -0.6935572     0.2594711    -1.5972799
N           1.0978126     0.5338501    -0.6278186
C           1.9022398     1.4026730     0.0136076
N           1.6013688     2.7180187     0.1583690
C           0.4333620     3.1588982    -0.3161316
H           0.2305345     4.2197207    -0.1831405
C           0.7542710    -3.7490205     0.5891030
H           0.0717828    -4.5948793     0.5931729
C           0.6138293    -2.7269435     1.5314684
H          -0.1753520    -2.7785723     2.2775013
C           1.4891657    -1.6430937     1.5270117
H           1.3823082    -0.8560760     2.2690422
C           2.5201315    -1.5574375     0.5787175
C           2.6628798    -2.5962672    -0.3506207
H           3.4606022    -2.5438806    -1.0866428
C           1.7828916    -3.6796465    -0.3508418
H           1.9039975    -4.4709440    -1.0864032
31
122_C16H12N2O_8-7-16-17 (0,) energy =    -801.6577910
C           5.5175263     1.4629765     1.2174566
H           6.2835331     2.2177841     1.3620248
C           5.7347742     0.1298288     1.5053614
H           6.6983278    -0.1939737     1.8902621
C           4.7143373    -0.8047394     1.3012954
H           4.8832065    -1.8527227     1.5269973
C           3.4670566    -0.4213393     0.8088982
C           3.2132081     0.9521877     0.5019628
C           4.2752204     1.8889676     0.7196273
O           4.1768158     3.2069804     0.4746703
H           3.2562653     3.3753930     0.1296672
C          -0.4641725     2.3379049    -0.9907633
H          -1.4124082     2.6961989    -1.3754368
C          -0.2372023     0.9917562    -0.6979868
H          -1.0168891     0.2458450    -0.8487997
N           0.9191491     0.5380470    -0.2257533
C           1.9120642     1.4224323    -0.0230413
N           1.7739209     2.7487503    -0.2825741
C           0.6070211     3.1898803    -0.7563640
H           0.5406760     4.2587268    -0.9497188
C           0.8195048    -3.8025229     0.4313437
H           0.1742811    -4.6731114     0.3465947
C           0.8516572    -3.0632512     1.6152145
H           0.2323505    -3.3580401     2.4588270
C           1.6838797    -1.9490257     1.7252120
H           1.7093499    -1.3784629     2.6498646
C           2.4873479    -1.5489264     0.6497224
C           2.4634931    -2.3077288    -0.5275137
H           3.0974470    -2.0171369    -1.3610817
C           1.6315864    -3.4221122    -0.6386332
H           1.6234492    -3.9980047    -1.5608059
31
122_C16H12N2O_8-7-16-17 (15,) energy =    -801.6590803
C           5.5032204     1.4443296     1.3020216
H           6.2917511     2.1842117     1.3926390
C           5.6305540     0.1679661     1.8174033
H           6.5422196    -0.1200694     2.3344350
C           4.6045164    -0.7663609     1.6415822
H           4.7348951    -1.7881405     1.9833599
C           3.4240992    -0.4265017     0.9794734
C           3.2369625     0.9089729     0.5078072
C           4.3291200     1.8231241     0.6305119
O           4.3061289     3.0833564     0.1608559
H           3.4502891     3.1977940    -0.3349024
C          -0.4195897     2.3059369    -1.0082380
H          -1.3648887     2.6672614    -1.3973804
C          -0.3156516     1.1108542    -0.2924665
H          -1.1955893     0.5014368    -0.0894529
N           0.8345463     0.6539966     0.1922144
C           1.9460878     1.3775309    -0.0409377
N           1.9286881     2.5672021    -0.6936310
C           0.7628831     3.0161389    -1.1659958
H           0.7901711     3.9746454    -1.6804805
C           0.8592561    -3.8106718     0.2565567
H           0.2351927    -4.6817063     0.0745391
C           1.1144797    -3.3884004     1.5615108
H           0.6866168    -3.9277200     2.4028994
C           1.9217113    -2.2737572     1.7940410
H           2.1152339    -1.9456577     2.8117485
C           2.4744413    -1.5540467     0.7264851
C           2.2206784    -1.9944635    -0.5816219
H           2.6632225    -1.4597679    -1.4180840
C           1.4199083    -3.1104287    -0.8147710
H           1.2392671    -3.4398072    -1.8350255
31
122_C16H12N2O_8-7-16-17 (30,) energy =    -801.6592900
C           5.4723860     1.4818400     1.3738790
H           6.2450784     2.2352002     1.4873830
C           5.6059178     0.2080762     1.9000256
H           6.5060129    -0.0587935     2.4477371
C           4.6081656    -0.7496318     1.6938761
H           4.7500582    -1.7677330     2.0422946
C           3.4405785    -0.4319171     0.9966272
C           3.2553582     0.8912674     0.5031894
C           4.3177752     1.8283966     0.6561198
O           4.2764046     3.0809047     0.1574768
H           3.4882937     3.1331109    -0.4412562
C          -0.4113378     2.2474173    -1.0040996
H          -1.3602362     2.5950201    -1.3972645
C          -0.3261678     1.1986676    -0.0854496
H          -1.2233250     0.6993503     0.2783798
N           0.8288241     0.7588356     0.4072531
C           1.9544940     1.3571201    -0.0251258
N           1.9660481     2.4024418    -0.8875853
C           0.7940591     2.8382207    -1.3603069
H           0.8354549     3.6849239    -2.0427072
C           0.8431497    -3.7692849     0.1861596
H           0.2061859    -4.6255454    -0.0195402
C           1.1705750    -3.4360103     1.5012347
H           0.7847798    -4.0293564     2.3263684
C           1.9926123    -2.3400171     1.7641735
H           2.2368250    -2.0776846     2.7899209
C           2.4925500    -1.5505347     0.7187881
C           2.1635339    -1.9007693    -0.6002406
H           2.5650873    -1.3139979    -1.4223505
C           1.3462592    -2.9981758    -0.8642527
H           1.1087090    -3.2573617    -1.8929988
31
122_C16H12N2O_8-7-16-17 (45,) energy =    -801.6573093
C           5.4511477     1.5004692     1.4511207
H           6.2045206     2.2671195     1.6000890
C           5.5979440     0.2173631     1.9573527
H           6.4897982    -0.0393773     2.5230194
C           4.6282431    -0.7579929     1.7107133
H           4.7819357    -1.7770959     2.0513516
C           3.4680206    -0.4501644     0.9933844
C           3.2839744     0.8689329     0.5023148
C           4.3102602     1.8279153     0.7078158
O           4.2391382     3.0864732     0.2124003
H           3.5245947     3.0946554    -0.4658134
C          -0.3905609     2.1951448    -0.9942246
H          -1.3434142     2.5292432    -1.3899137
C          -0.3044028     1.3080828     0.0804770
H          -1.2020531     0.9284764     0.5667205
N           0.8564389     0.8843298     0.5785863
C           1.9758008     1.3431149    -0.0079197
N           1.9962151     2.2219246    -1.0368455
C           0.8187825     2.6458912    -1.5097246
H           0.8578151     3.3635656    -2.3270657
C           0.8122486    -3.7274590     0.1310257
H           0.1563133    -4.5657953    -0.0883062
C           1.2050567    -3.4665197     1.4448430
H           0.8502905    -4.0979515     2.2554469
C           2.0500968    -2.3930934     1.7251151
H           2.3408254    -2.1849819     2.7510633
C           2.5121736    -1.5548849     0.6992688
C           2.1146874    -1.8315328    -0.6187750
H           2.4850086    -1.2074451    -1.4278651
C           1.2727856    -2.9061398    -0.9002765
H           0.9832213    -3.1080306    -1.9284787
31
122_C16H12N2O_8-7-16-17 (60,) energy =    -801.6532649
C           5.4271118     1.5300637     1.5257887
H           6.1587243     2.3094288     1.7124918
C           5.5969153     0.2336338     1.9960591
H           6.4857795    -0.0182845     2.5684676
C           4.6547745    -0.7556706     1.7087900
H           4.8227924    -1.7782081     2.0322818
C           3.4963395    -0.4530091     0.9821881
C           3.3034366     0.8679737     0.5135421
C           4.2906896     1.8447473     0.7749583
O           4.1788157     3.1185716     0.3070860
H           3.5326484     3.1082324    -0.4278153
C          -0.3829308     2.1374299    -0.9973589
H          -1.3408135     2.4508003    -1.3983178
C          -0.2768811     1.4503213     0.2123936
H          -1.1613736     1.2124404     0.8016134
N           0.8919665     1.0530411     0.7186595
C           1.9894995     1.3413186     0.0006845
N           1.9974610     2.0130614    -1.1707580
C           0.8133991     2.4155605    -1.6491265
H           0.8348562     2.9699083    -2.5858009
C           0.7938952    -3.6814957     0.0836999
H           0.1222993    -4.5050296    -0.1440717
C           1.2385247    -3.4776953     1.3912819
H           0.9082610    -4.1386131     2.1885701
C           2.1024367    -2.4226926     1.6826950
H           2.4313871    -2.2575231     2.7048455
C           2.5347651    -1.5471089     0.6743791
C           2.0830978    -1.7653240    -0.6375329
H           2.4277753    -1.1121272    -1.4346402
C           1.2210818    -2.8213804    -0.9298458
H           0.8900835    -2.9781559    -1.9533660
31
122_C16H12N2O_8-7-16-17 (75,) energy =    -801.6486471
C           5.4115028     1.5412185     1.5856904
H           6.1261170     2.3275751     1.8059848
C           5.6064801     0.2299202     2.0054555
H           6.4990457    -0.0269908     2.5696935
C           4.6805707    -0.7628021     1.6844110
H           4.8607891    -1.7919169     1.9794369
C           3.5187158    -0.4543608     0.9627636
C           3.3094869     0.8759925     0.5390701
C           4.2679146     1.8592367     0.8496907
O           4.1194161     3.1572125     0.4463040
H           3.4891960     3.1758629    -0.2950647
C          -0.3870906     2.0906909    -0.9999974
H          -1.3502500     2.3878694    -1.4011137
C          -0.2398898     1.6503217     0.3151306
H          -1.0938832     1.5957618     0.9887557
N           0.9372577     1.2775120     0.8237362
C           1.9943994     1.3383579    -0.0016459
N           1.9648628     1.7555785    -1.2823066
C           0.7742970     2.1388811    -1.7634684
H           0.7608071     2.4862098    -2.7953484
C           0.7851247    -3.6507630     0.0407027
H           0.1031744    -4.4644454    -0.1916814
C           1.2520212    -3.4750136     1.3446772
H           0.9292299    -4.1482967     2.1346258
C           2.1284962    -2.4320766     1.6416362
H           2.4746351    -2.2886154     2.6613842
C           2.5525360    -1.5408801     0.6427682
C           2.0773353    -1.7300222    -0.6655380
H           2.4139264    -1.0648758    -1.4555518
C           1.2024904    -2.7746630    -0.9628828
H           0.8536886    -2.9094222    -1.9836219
31
122_C16H12N2O_8-7-16-17 (90,) energy =    -801.6458003
C           5.4657379     1.5880239     1.3786324
H           6.1583358     2.3929213     1.6024006
C           5.8590264     0.2545130     1.3901801
H           6.8872073    -0.0007876     1.6322635
C           4.9394184    -0.7567328     1.1142602
H           5.2443987    -1.7978521     1.1548324
C           3.6077015    -0.4485169     0.8008138
C           3.2028696     0.9029181     0.7808457
C           4.1405277     1.9085750     1.0748249
O           3.8086964     3.2359367     1.0752855
H           2.8416572     3.3190805     1.0938685
C          -0.4941452     2.1944733    -0.7076031
H          -1.4481541     2.5324604    -1.0984021
C          -0.2482020     2.1057183     0.6588027
H          -1.0047394     2.3864902     1.3899704
N           0.9232590     1.6815506     1.1519822
C           1.8633975     1.3271288     0.2556162
N           1.7466423     1.4336884    -1.0784709
C           0.5655382     1.8496945    -1.5450380
H           0.4737199     1.9201653    -2.6279048
C           0.9178759    -3.7023242    -0.0502316
H           0.2456300    -4.5298905    -0.2609303
C           0.5556904    -2.7190784     0.8720546
H          -0.3975955    -2.7835307     1.3905679
C           1.4170510    -1.6558201     1.1433567
H           1.1367329    -0.9047440     1.8755101
C           2.6595769    -1.5562966     0.4955856
C           3.0138179    -2.5548616    -0.4264478
H           3.9657008    -2.4827527    -0.9452585
C           2.1512680    -3.6160036    -0.6987176
H           2.4414520    -4.3735925    -1.4221490
31
122_C16H12N2O_8-7-16-17 (105,) energy =    -801.6497814
C           5.4239786     1.6133063     1.4027152
H           6.0988113     2.4260202     1.6511176
C           5.8569313     0.2942334     1.3271682
H           6.8998670     0.0595608     1.5228758
C           4.9587047    -0.7322127     1.0340310
H           5.2948847    -1.7643803     1.0229960
C           3.6115884    -0.4491515     0.7709803
C           3.1638024     0.8887470     0.8357530
C           4.0789134     1.9091052     1.1665265
O           3.6926071     3.2134552     1.2736325
H           2.7264960     3.2288125     1.4082820
C          -0.4725207     2.2370310    -0.7337715
H          -1.4091506     2.5969482    -1.1459187
C          -0.1297977     2.4367646     0.5987763
H          -0.7832859     2.9826204     1.2773167
N           1.0201501     1.9852358     1.1179583
C           1.8384238     1.3052011     0.2882870
N           1.6382699     1.1415848    -1.0298140
C           0.4795378     1.5877930    -1.5199778
H           0.3191091     1.4373938    -2.5866539
C           0.9486715    -3.7222791    -0.0836305
H           0.2818472    -4.5542598    -0.2939743
C           0.5791353    -2.7399392     0.8368209
H          -0.3742595    -2.8089935     1.3544283
C           1.4349019    -1.6724841     1.1068936
H           1.1501437    -0.9251019     1.8421549
C           2.6778992    -1.5653640     0.4608277
C           3.0386930    -2.5628598    -0.4594358
H           3.9886916    -2.4845722    -0.9805734
C           2.1825322    -3.6292663    -0.7304887
H           2.4774650    -4.3857238    -1.4531778
31
122_C16H12N2O_8-7-16-17 (120,) energy =    -801.6544973
C           5.4051764     1.5993426     1.4746771
H           6.0749180     2.4030044     1.7630009
C           5.8432696     0.2880549     1.3453964
H           6.8859657     0.0485852     1.5369264
C           4.9486070    -0.7298261     1.0086284
H           5.2863652    -1.7606028     0.9667535
C           3.6040372    -0.4413695     0.7490761
C           3.1482645     0.8953423     0.8541907
C           4.0588128     1.9055117     1.2471479
O           3.6764282     3.1969715     1.4204189
H           2.6979687     3.2050549     1.4985307
C          -0.4728572     2.2409262    -0.7503618
H          -1.4067941     2.5969025    -1.1715008
C          -0.0236871     2.6540636     0.4981724
H          -0.5840106     3.3707105     1.0959351
N           1.1219950     2.2074140     1.0282423
C           1.8350550     1.3183891     0.3012389
N           1.5269072     0.9345025    -0.9499021
C           0.3743447     1.3802416    -1.4503007
H           0.1309937     1.0527436    -2.4601494
C           0.9739802    -3.7396381    -0.1088330
H           0.3169435    -4.5799525    -0.3169009
C           0.6173403    -2.7885847     0.8491000
H          -0.3157630    -2.8902274     1.3974437
C           1.4608236    -1.7111067     1.1162065
H           1.1873155    -0.9868586     1.8788864
C           2.6773904    -1.5618894     0.4302656
C           3.0266259    -2.5285985    -0.5257641
H           3.9571711    -2.4184206    -1.0754941
C           2.1825468    -3.6052164    -0.7948159
H           2.4673419    -4.3376077    -1.5458511
31
122_C16H12N2O_8-7-16-17 (135,) energy =    -801.6579913
C           5.3927920     1.5908622     1.5520969
H           6.0576834     2.3808275     1.8858781
C           5.8268727     0.2839620     1.3921950
H           6.8625727     0.0308687     1.6033853
C           4.9332255    -0.7172967     1.0019313
H           5.2625827    -1.7500384     0.9457985
C           3.5985491    -0.4144436     0.7188165
C           3.1477556     0.9279764     0.8325016
C           4.0541530     1.9187136     1.2972591
O           3.6918453     3.2048935     1.5040793
H           2.7053402     3.2377788     1.4839570
C          -0.4908004     2.2514882    -0.7584100
H          -1.4311304     2.5964925    -1.1740536
C           0.0672814     2.8261092     0.3764672
H          -0.4100146     3.6606040     0.8866442
N           1.2201451     2.3936261     0.8997323
C           1.8414656     1.3608462     0.2834638
N           1.4119391     0.7970098    -0.8606286
C           0.2548981     1.2325602    -1.3552648
H          -0.0803574     0.7599730    -2.2775996
C           1.0158960    -3.7520057    -0.1330383
H           0.3735627    -4.6048010    -0.3363242
C           0.6749578    -2.8366897     0.8649867
H          -0.2310175    -2.9790082     1.4487328
C           1.4994048    -1.7434344     1.1257278
H           1.2383540    -1.0451552     1.9166610
C           2.6802430    -1.5421665     0.3931745
C           3.0167394    -2.4742814    -0.5999125
H           3.9225961    -2.3256253    -1.1810805
C           2.1907037    -3.5664174    -0.8638439
H           2.4642144    -4.2717082    -1.6444902
31
122_C16H12N2O_8-7-16-17 (150,) energy =    -801.6594143
C           5.3644064     1.5803641     1.6400613
H           6.0223551     2.3561091     2.0179540
C           5.7900619     0.2741543     1.4716915
H           6.8129317     0.0025872     1.7194262
C           4.8988153    -0.7065255     1.0250210
H           5.2145669    -1.7433337     0.9673642
C           3.5799831    -0.3845722     0.6984230
C           3.1409884     0.9677261     0.7982355
C           4.0422204     1.9355668     1.3314934
O           3.7074114     3.2238599     1.5431903
H           2.7273224     3.2988799     1.4080820
C          -0.5260326     2.2803362    -0.7505594
H          -1.4753129     2.6182447    -1.1510955
C           0.1454730     2.9805856     0.2429668
H          -0.2485934     3.9077277     0.6545052
N           1.3094264     2.5585270     0.7465062
C           1.8390196     1.4117523     0.2546421
N           1.2786862     0.7030640    -0.7437828
C           0.1144721     1.1322877    -1.2229478
H          -0.3191355     0.5405239    -2.0282248
C           1.0655247    -3.7740455    -0.1582576
H           0.4442664    -4.6428979    -0.3591643
C           0.7364318    -2.8982083     0.8790043
H          -0.1391379    -3.0877785     1.4949513
C           1.5335841    -1.7847112     1.1367615
H           1.2810444    -1.1152851     1.9549911
C           2.6742598    -1.5226124     0.3616551
C           3.0024803    -2.4163331    -0.6674758
H           3.8816381    -2.2236926    -1.2762542
C           2.2023328    -3.5287461    -0.9295929
H           2.4683468    -4.2041279    -1.7388291
31
122_C16H12N2O_8-7-16-17 (165,) energy =    -801.6588829
C           5.3404145     1.5504941     1.7172278
H           5.9966163     2.3163017     2.1176678
C           5.7435996     0.2358264     1.5793262
H           6.7473392    -0.0583512     1.8749424
C           4.8505315    -0.7246739     1.0930758
H           5.1458387    -1.7680073     1.0477864
C           3.5545631    -0.3786120     0.7086129
C           3.1381559     0.9872177     0.7712175
C           4.0447296     1.9377728     1.3374880
O           3.7517866     3.2382866     1.5146743
H           2.7984086     3.3643171     1.2549366
C          -0.5408629     2.3259856    -0.7466711
H          -1.4926203     2.6700885    -1.1356474
C           0.2610927     3.1266268     0.0556200
H          -0.0293419     4.1403582     0.3242857
N           1.4290099     2.6996925     0.5420284
C           1.8400415     1.4442357     0.2296100
N           1.1313699     0.6195732    -0.5639158
C          -0.0326343     1.0569643    -1.0332731
H          -0.5804516     0.3652643    -1.6723175
C           1.1255958    -3.8157791    -0.2101187
H           0.5305234    -4.6995848    -0.4248042
C           0.8258749    -3.0172079     0.8967377
H          -0.0006009    -3.2821364     1.5515819
C           1.5892170    -1.8849106     1.1726295
H           1.3577114    -1.2722010     2.0400403
C           2.6647409    -1.5262369     0.3458231
C           2.9684068    -2.3436702    -0.7505126
H           3.8038992    -2.0803153    -1.3935357
C           2.2004937    -3.4750750    -1.0314380
H           2.4459620    -4.0916239    -1.8925470
31
122_C16H12N2O_8-7-16-17 (180,) energy =    -801.6577909
C           5.3062523     1.5792186     1.7749743
H           5.9828088     2.3549118     2.1184544
C           5.6272979     0.2379333     1.8473304
H           6.5847169    -0.0710592     2.2587960
C           4.7199348    -0.7235763     1.3907982
H           4.9709735    -1.7778809     1.4469227
C           3.4835778    -0.3595693     0.8576461
C           3.1237892     1.0217606     0.7702778
C           4.0710930     1.9863371     1.2446145
O           3.8658298     3.3146288     1.2233028
H           2.9628300     3.4679979     0.8285236
C          -0.5429161     2.3534912    -0.7956120
H          -1.4884240     2.6980269    -1.1990872
C           0.4203770     3.2327404    -0.3188702
H           0.2674937     4.3101209    -0.3296473
N           1.5839642     2.8085812     0.1779422
C           1.8280863     1.4727089     0.2157192
N           0.9428891     0.5624261    -0.2279955
C          -0.2116611     0.9992620    -0.7201489
H          -0.9023333     0.2323610    -1.0692706
C           1.2098246    -3.8194942    -0.3434392
H           0.6595361    -4.7096815    -0.6369835
C           1.0801331    -3.3065754     0.9485024
H           0.4293774    -3.7982042     1.6674908
C           1.7906559    -2.1669836     1.3263152
H           1.6903039    -1.7732138     2.3343050
C           2.6318249    -1.5151507     0.4153719
C           2.7709897    -2.0477504    -0.8727744
H           3.4359192    -1.5606686    -1.5811515
C           2.0610206    -3.1872673    -1.2517015
H           2.1787139    -3.5855362    -2.2565177
