31
122_C16H12N2O_4-6-26-24 (-165,) energy =    -801.6483727
C           5.4259836     1.6390733     1.3566425
H           6.1091388     2.4452426     1.6027613
C           5.7521226     0.3082700     1.5482380
H           6.7177920     0.0421130     1.9698642
C           4.8713920    -0.7018337     1.1543694
H           5.2228147    -1.7255250     1.1913062
C           3.6275592    -0.4128036     0.5782089
C           3.2078517     0.9561089     0.5548395
C           4.1666416     1.9712575     0.8383491
O           3.9099825     3.2890593     0.6942642
H           3.0506924     3.3730921     0.2116803
C          -0.7754768     2.2599889     0.5024149
H          -1.8047449     2.6013180     0.5034564
C           0.2421508     2.9925625    -0.0927074
H           0.0509043     3.9493561    -0.5746103
N           1.5118995     2.5680552    -0.1055510
C           1.7891447     1.3858920     0.4925340
N           0.8717228     0.6382862     1.1374511
C          -0.3849588     1.0732510     1.1293322
H          -1.1099978     0.4536686     1.6557796
C           1.1601504    -3.7193582    -0.7598346
H           0.5390190    -4.5493665    -1.0855541
C           0.9029065    -2.4229854    -1.2065508
H           0.0805421    -2.2339832    -1.8918400
C           1.6958288    -1.3599226    -0.7823437
H           1.5009178    -0.3778652    -1.1964136
C           2.7955129    -1.5499532     0.0753473
C           3.0200022    -2.8644793     0.5305567
H           3.8029802    -3.0649198     1.2527068
C           2.2263365    -3.9312000     0.1134391
H           2.4364881    -4.9296763     0.4879911
31
122_C16H12N2O_4-6-26-24 (-150,) energy =    -801.6545100
C           5.4589562     1.6473469     1.2887796
H           6.1504692     2.4516432     1.5172609
C           5.8090390     0.3145846     1.4170527
H           6.8036908     0.0471921     1.7640410
C           4.9096825    -0.6910949     1.0541283
H           5.2488602    -1.7209461     1.0452938
C           3.6272557    -0.3888191     0.5821941
C           3.2031516     0.9760308     0.5883144
C           4.1703829     1.9888968     0.8526541
O           3.9039590     3.3080110     0.7576372
H           3.0163396     3.3997497     0.3278984
C          -0.8059055     2.1988299     0.5167126
H          -1.8426355     2.5165748     0.5076654
C           0.2134746     2.9971522     0.0163643
H           0.0156073     3.9841583    -0.3970432
N           1.4917739     2.6017538     0.0159181
C           1.7792490     1.3828111     0.5315658
N           0.8581794     0.5687171     1.0830859
C          -0.4077760     0.9755827     1.0628837
H          -1.1348468     0.3010694     1.5135633
C           1.1585202    -3.6793659    -0.7426998
H           0.5408765    -4.5093773    -1.0752367
C           1.0239921    -2.4191223    -1.3289141
H           0.3032255    -2.2628953    -2.1275564
C           1.8121381    -1.3554820    -0.8981752
H           1.7164618    -0.3945594    -1.3937348
C           2.7780174    -1.5205782     0.1106538
C           2.8856262    -2.7923646     0.7007495
H           3.5730680    -2.9438812     1.5268174
C           2.0932221    -3.8584205     0.2767959
H           2.2001526    -4.8282252     0.7558649
31
122_C16H12N2O_4-6-26-24 (-135,) energy =    -801.6581519
C           5.5005638     1.6099684     1.2182630
H           6.2081958     2.4066897     1.4229120
C           5.8556587     0.2742416     1.2890395
H           6.8710188    -0.0019512     1.5612400
C           4.9288521    -0.7208987     0.9654407
H           5.2463532    -1.7576000     0.9249068
C           3.6183246    -0.3988678     0.6011345
C           3.2041774     0.9667224     0.6316639
C           4.1899418     1.9693818     0.8682411
O           3.9297235     3.2909211     0.8165175
H           3.0149424     3.3967407     0.4481156
C          -0.8132160     2.1616483     0.5592100
H          -1.8525450     2.4704472     0.5445531
C           0.2113285     3.0037127     0.1483679
H           0.0146527     4.0170267    -0.1962309
N           1.4922250     2.6200119     0.1544916
C           1.7802339     1.3680054     0.5860688
N           0.8521395     0.5082219     1.0484373
C          -0.4171083     0.9044167     1.0227140
H          -1.1488874     0.1914155     1.4006574
C           1.1647314    -3.6781018    -0.7452925
H           0.5581937    -4.5106099    -1.0919200
C           1.1556226    -2.4638810    -1.4363753
H           0.5460075    -2.3494742    -2.3292035
C           1.9308169    -1.3966065    -0.9905958
H           1.9331912    -0.4651149    -1.5496509
C           2.7451430    -1.5187992     0.1480286
C           2.7419816    -2.7437849     0.8333488
H           3.3376072    -2.8501231     1.7354398
C           1.9607147    -3.8120450     0.3924156
H           1.9705145    -4.7482642     0.9446795
31
122_C16H12N2O_4-6-26-24 (-120,) energy =    -801.6594164
C           5.5227338     1.6027188     1.1484333
H           6.2397667     2.3952882     1.3359595
C           5.8844059     0.2671121     1.1565866
H           6.9151880    -0.0128622     1.3577841
C           4.9393855    -0.7214055     0.8642422
H           5.2442395    -1.7605689     0.7927215
C           3.6086556    -0.3903353     0.6009312
C           3.1979576     0.9739468     0.6647393
C           4.1946968     1.9711039     0.8823286
O           3.9354348     3.2931278     0.8799552
H           2.9998790     3.4088673     0.5683231
C          -0.8283236     2.1411328     0.6004114
H          -1.8700359     2.4415773     0.5832334
C           0.1975568     3.0202619     0.2797787
H          -0.0007505     4.0550014     0.0073589
N           1.4809917     2.6476427     0.2889984
C           1.7729696     1.3687806     0.6318009
N           0.8418190     0.4696577     1.0030377
C          -0.4305325     0.8556432     0.9757483
H          -1.1636233     0.1091239     1.2790496
C           1.1753999    -3.6825213    -0.7367859
H           0.5806985    -4.5230543    -1.0847212
C           1.3074893    -2.5384660    -1.5276512
H           0.8213743    -2.4886362    -2.4988162
C           2.0700066    -1.4611027    -1.0816951
H           2.1812957    -0.5799094    -1.7081295
C           2.7162935    -1.5044204     0.1639181
C           2.5868357    -2.6627913     0.9430442
H           3.0776562    -2.7078001     1.9114008
C           1.8187949    -3.7401015     0.5000129
H           1.7230983    -4.6251338     1.1239668
31
122_C16H12N2O_4-6-26-24 (-105,) energy =    -801.6590538
C           5.5174051     1.6213098     1.0947915
H           6.2367433     2.4125824     1.2790457
C           5.8898753     0.2908348     1.0289779
H           6.9316454     0.0125551     1.1657345
C           4.9364099    -0.6942182     0.7507288
H           5.2394156    -1.7305556     0.6401636
C           3.5914725    -0.3654758     0.5787033
C           3.1755331     0.9940033     0.6904401
C           4.1760226     1.9897003     0.9058392
O           3.9134794     3.3091386     0.9629254
H           2.9616723     3.4311351     0.7041589
C          -0.8596905     2.1362910     0.6304084
H          -1.9032315     2.4300391     0.6105535
C           0.1665629     3.0462158     0.4125776
H          -0.0337031     4.0987626     0.2221464
N           1.4519999     2.6830527     0.4257042
C           1.7489326     1.3818026     0.6675926
N           0.8151770     0.4491818     0.9324312
C          -0.4597163     0.8263200     0.9036687
H          -1.1930158     0.0502712     1.1199209
C           1.1883805    -3.6963164    -0.7182793
H           0.6068476    -4.5502908    -1.0557128
C           1.4775311    -2.6508281    -1.5974699
H           1.1280105    -2.6911109    -2.6261737
C           2.2268552    -1.5569914    -1.1650746
H           2.4607402    -0.7512771    -1.8562906
C           2.6897411    -1.4837188     0.1567224
C           2.4121669    -2.5479618     1.0251064
H           2.7768094    -2.5066976     2.0478540
C           1.6611057    -3.6415867     0.5941539
H           1.4473126    -4.4535395     1.2847644
31
122_C16H12N2O_4-6-26-24 (-90,) energy =    -801.6580246
C           5.5296398     1.6190684     1.0414048
H           6.2509956     2.4050796     1.2396534
C           5.9076137     0.3013361     0.8652514
H           6.9570210     0.0247882     0.9262150
C           4.9441989    -0.6733676     0.5853563
H           5.2443176    -1.7021021     0.4137027
C           3.5891836    -0.3505165     0.5125804
C           3.1694758     0.9997346     0.7113225
C           4.1777027     1.9861641     0.9493995
O           3.9191576     3.2968891     1.1093226
H           2.9495287     3.4302014     0.9276847
C          -0.8662286     2.1586875     0.6786311
H          -1.9083219     2.4576793     0.6637139
C           0.1679335     3.0846332     0.6332386
H          -0.0244602     4.1547703     0.5884163
N           1.4510846     2.7164560     0.6431829
C           1.7435070     1.3921835     0.7048565
N           0.7980563     0.4387477     0.7855854
C          -0.4750733     0.8212221     0.7657381
H          -1.2143997     0.0237358     0.8313815
C           1.2116985    -3.7464538    -0.6668070
H           0.6407185    -4.6199962    -0.9706326
C           1.6579539    -2.8314453    -1.6208418
H           1.4410336    -2.9917372    -2.6740674
C           2.3974562    -1.7136950    -1.2298086
H           2.7538576    -1.0097122    -1.9774414
C           2.6845539    -1.4836185     0.1218412
C           2.2505539    -2.4196401     1.0702802
H           2.4836033    -2.2595481     2.1193872
C           1.5148523    -3.5378877     0.6808393
H           1.1810844    -4.2506964     1.4308830
31
122_C16H12N2O_4-6-26-24 (-75,) energy =    -801.6586890
C           4.9286131     1.5608917     2.4407787
H           5.5100456     2.3414614     2.9205283
C           5.1771405     0.2185652     2.6619266
H           5.9780046    -0.0811077     3.3329262
C           4.3788222    -0.7538349     2.0505231
H           4.5403110    -1.8054836     2.2652044
C           3.3512582    -0.3976726     1.1767348
C           3.1007842     0.9794285     0.9015896
C           3.8862350     1.9559750     1.5875404
O           3.7047611     3.2838450     1.4584588
H           2.8753150     3.4172986     0.9267954
C           0.2839865     2.2511637    -1.9358381
H          -0.4484687     2.5781832    -2.6653728
C           0.7950100     3.1076039    -0.9693005
H           0.4883404     4.1500007    -0.9093095
N           1.6890084     2.7027615    -0.0634791
C           2.1071107     1.4126979    -0.1044547
N           1.6929144     0.5344071    -1.0360570
C           0.7944862     0.9514183    -1.9233750
H           0.4774453     0.2176375    -2.6635163
C           0.9321065    -3.7183342    -0.1234277
H           0.3291137    -4.5673819    -0.4347178
C           2.1907108    -3.5044796    -0.6892785
H           2.5703359    -4.1856722    -1.4467981
C           2.9655950    -2.4168044    -0.2875699
H           3.9412651    -2.2478809    -0.7348602
C           2.4943220    -1.5242570     0.6841764
C           1.2326584    -1.7499564     1.2511948
H           0.8624232    -1.0703811     2.0145824
C           0.4566837    -2.8377908     0.8497649
H          -0.5177774    -3.0007882     1.3035009
31
122_C16H12N2O_4-6-26-24 (-60,) energy =    -801.6594241
C           4.9537482     1.5626659     2.3974134
H           5.5338192     2.3421654     2.8805134
C           5.2562646     0.2210443     2.5488388
H           6.0995516    -0.0774265     3.1662410
C           4.4564767    -0.7543052     1.9445140
H           4.6521510    -1.8066633     2.1241750
C           3.3693121    -0.3990831     1.1442775
C           3.0797057     0.9789785     0.9199376
C           3.8600389     1.9544135     1.6095843
O           3.6287301     3.2793253     1.5348682
H           2.7705860     3.4009808     1.0500928
C           0.2567634     2.2728173    -1.8972415
H          -0.4751916     2.6056329    -2.6246921
C           0.6889406     3.0890662    -0.8602884
H           0.3179623     4.1050162    -0.7401110
N           1.5819749     2.6757978     0.0437610
C           2.0769573     1.4189334    -0.0740322
N           1.7463547     0.5838356    -1.0770916
C           0.8472051     1.0084079    -1.9602162
H           0.5967303     0.3127321    -2.7602196
C           0.9189312    -3.7168944    -0.0946177
H           0.3069001    -4.5660726    -0.3871745
C           2.2487122    -3.6317588    -0.5094860
H           2.6765305    -4.4136382    -1.1319297
C           3.0351526    -2.5439860    -0.1288670
H           4.0678721    -2.4766595    -0.4600246
C           2.5030613    -1.5176159     0.6635863
C           1.1673101    -1.6175365     1.0821781
H           0.7486521    -0.8399612     1.7158969
C           0.3823045    -2.7059439     0.7061111
H          -0.6485137    -2.7692519     1.0457989
31
122_C16H12N2O_4-6-26-24 (-45,) energy =    -801.6588509
C           4.9740003     1.5618532     2.3522118
H           5.5546163     2.3391563     2.8380909
C           5.3196044     0.2245851     2.4368579
H           6.1997896    -0.0718155     3.0014611
C           4.5174005    -0.7519280     1.8386482
H           4.7432657    -1.8024371     1.9890937
C           3.3757178    -0.4025762     1.1132400
C           3.0582048     0.9768182     0.9320232
C           3.8369730     1.9491409     1.6261768
O           3.5680483     3.2693279     1.6034605
H           2.6889348     3.3833886     1.1573122
C           0.2404227     2.3247439    -1.8637938
H          -0.4871319     2.6728505    -2.5885126
C           0.6132943     3.0914180    -0.7679014
H           0.1978109     4.0823040    -0.5954228
N           1.5010830     2.6584750     0.1328946
C           2.0499935     1.4325822    -0.0499444
N           1.7798988     0.6486200    -1.1113964
C           0.8849731     1.0915315    -1.9897071
H           0.6830169     0.4385733    -2.8379948
C           0.9220160    -3.7459448    -0.0520320
H           0.3083640    -4.6026977    -0.3176195
C           2.2914748    -3.7511443    -0.3175553
H           2.7513394    -4.6119045    -0.7963629
C           3.0792297    -2.6536670     0.0310102
H           4.1426981    -2.6611964    -0.1911480
C           2.5122832    -1.5188564     0.6304361
C           1.1348548    -1.5358515     0.9086691
H           0.6839026    -0.6861767     1.4140362
C           0.3480470    -2.6331498     0.5680127
H          -0.7145022    -2.6251311     0.7978518
31
122_C16H12N2O_4-6-26-24 (-30,) energy =    -801.6560987
C           4.9985485     1.5532339     2.3236132
H           5.5778724     2.3296180     2.8123966
C           5.3853823     0.2246586     2.3395607
H           6.3004702    -0.0658903     2.8489525
C           4.5832891    -0.7546176     1.7468166
H           4.8457158    -1.7992976     1.8702620
C           3.3888357    -0.4209701     1.1008060
C           3.0472819     0.9589383     0.9585947
C           3.8217154     1.9292524     1.6587160
O           3.5148637     3.2418160     1.6874776
H           2.6160822     3.3435743     1.2817372
C           0.2478235     2.3741055    -1.8222523
H          -0.4714233     2.7410738    -2.5459986
C           0.5527259     3.0775996    -0.6649395
H           0.0890213     4.0360329    -0.4399748
N           1.4307076     2.6205339     0.2345803
C           2.0375514     1.4347635    -0.0139187
N           1.8354156     0.7148792    -1.1347195
C           0.9494784     1.1803689    -2.0104145
H           0.8023578     0.5804485    -2.9077359
C           0.9106978    -3.7728654    -0.0099505
H           0.2879603    -4.6300482    -0.2516338
C           2.2978839    -3.8521178    -0.1289929
H           2.7656318    -4.7728291    -0.4680656
C           3.0960601    -2.7541103     0.1907691
H           4.1726147    -2.8296957     0.0701154
C           2.5314287    -1.5345200     0.6009043
C           1.1323908    -1.4868845     0.7488876
H           0.6679081    -0.5867335     1.1400009
C           0.3325789    -2.5829909     0.4382121
H          -0.7450491    -2.5135336     0.5635762
31
122_C16H12N2O_4-6-26-24 (-15,) energy =    -801.6508810
C           5.0024601     1.5613505     2.2783868
H           5.5746918     2.3405249     2.7709454
C           5.4393157     0.2499955     2.2171377
H           6.3918026    -0.0230712     2.6636899
C           4.6451343    -0.7385707     1.6293224
H           4.9608116    -1.7708756     1.7162488
C           3.3969615    -0.4381137     1.0725111
C           3.0235637     0.9395605     0.9704359
C           3.7850986     1.9140995     1.6779622
O           3.4310638     3.2130137     1.7634398
H           2.5140084     3.2951803     1.3982601
C           0.2541925     2.4190940    -1.8065598
H          -0.4535859     2.8047802    -2.5318958
C           0.4856679     3.0536093    -0.5938785
H          -0.0274528     3.9744941    -0.3238435
N           1.3497855     2.5726841     0.3075659
C           2.0156085     1.4330082     0.0035146
N           1.8867764     0.7830160    -1.1701907
C           1.0140894     1.2709463    -2.0468661
H           0.9258831     0.7286225    -2.9875158
C           0.8815385    -3.7965290     0.0251945
H           0.2460721    -4.6504883    -0.1933335
C           2.2683880    -3.9352284     0.0538105
H           2.7263162    -4.9011544    -0.1427001
C           3.0814301    -2.8410438     0.3451647
H           4.1572261    -2.9814395     0.3304288
C           2.5464987    -1.5577207     0.5641625
C           1.1400635    -1.4584760     0.5875918
H           0.6722444    -0.5218678     0.8694878
C           0.3221570    -2.5485121     0.3046787
H          -0.7578625    -2.4266532     0.3271528
31
122_C16H12N2O_4-6-26-24 (0,) energy =    -801.6439993
C           5.0165331     1.5630347     2.2248484
H           5.5828388     2.3443676     2.7207485
C           5.4999753     0.2753113     2.0797129
H           6.4879722     0.0221523     2.4550344
C           4.7115459    -0.7204116     1.4968652
H           5.0883857    -1.7342557     1.5185391
C           3.4161978    -0.4584179     1.0325876
C           3.0060664     0.9143425     0.9765376
C           3.7618293     1.8878984     1.6908082
O           3.3660730     3.1706158     1.8342682
H           2.4347191     3.2331141     1.5064554
C           0.2608011     2.4920510    -1.7692156
H          -0.4357561     2.9073791    -2.4890412
C           0.4208145     3.0348335    -0.5019189
H          -0.1406859     3.9097101    -0.1801371
N           1.2720495     2.5174172     0.3926087
C           1.9951008     1.4338683     0.0245963
N           1.9358857     0.8737961    -1.2009248
C           1.0760316     1.3969610    -2.0699665
H           1.0436488     0.9289050    -3.0531141
C           0.8649614    -3.8381514     0.0661866
H           0.2200277    -4.6891557    -0.1351379
C           2.2286969    -4.0165383     0.2908685
H           2.6614880    -5.0133725     0.2734031
C           3.0502468    -2.9237186     0.5591774
H           4.1048670    -3.1211722     0.7111799
C           2.5675036    -1.5983257     0.5516283
C           1.1708623    -1.4614330     0.4014208
H           0.7036041    -0.4949598     0.5328103
C           0.3407263    -2.5480431     0.1394355
H          -0.7271314    -2.3839767     0.0190906
31
122_C16H12N2O_4-6-26-24 (15,) energy =    -801.6508881
C           5.1704634     1.5988247     1.9743277
H           5.8669914     2.3799757     2.2604558
C           5.2560759     0.3121281     2.4757195
H           6.0357039     0.0606570     3.1899632
C           4.3788479    -0.6827201     2.0354605
H           4.5579264    -1.7031385     2.3512341
C           3.3814785    -0.4124118     1.0916157
C           3.1718800     0.9498972     0.7070868
C           4.1461302     1.9229257     1.0729507
O           4.1146661     3.2001420     0.6398959
H           3.4173531     3.2577375    -0.0610115
C          -0.4326328     2.4299990    -0.8382060
H          -1.3678965     2.8166862    -1.2275409
C           0.7891333     3.0155647    -1.1400758
H           0.8587629     3.8974232    -1.7738807
N           1.9453987     2.5327636    -0.6702593
C           1.8986246     1.4414819     0.1305374
N           0.7527453     0.8430574     0.5121809
C          -0.3838682     1.3313342     0.0243852
H          -1.2969461     0.8313596     0.3453786
C           1.3407622    -3.8278929    -0.6049970
H           0.8671512    -4.6977369    -1.0520998
C           1.9123558    -3.9059110     0.6640965
H           1.8886745    -4.8406212     1.2182457
C           2.5287786    -2.7914041     1.2306904
H           2.9377119    -2.8836285     2.2314584
C           2.5510014    -1.5442391     0.5784037
C           2.0182789    -1.5090957    -0.7266102
H           2.1155280    -0.6077783    -1.3215108
C           1.4077017    -2.6200288    -1.3013539
H           1.0039925    -2.5469207    -2.3080478
31
122_C16H12N2O_4-6-26-24 (30,) energy =    -801.6560988
C           5.2082450     1.5929507     1.9419971
H           5.9058493     2.3710284     2.2339583
C           5.3418293     0.2843893     2.3718981
H           6.1636979     0.0123617     3.0290268
C           4.4556317    -0.7014948     1.9287879
H           4.6459942    -1.7376696     2.1848532
C           3.3990177    -0.3928388     1.0664364
C           3.1686099     0.9750184     0.7245131
C           4.1423467     1.9455243     1.1005732
O           4.0812520     3.2396671     0.7273685
H           3.3564446     3.3192095     0.0557035
C          -0.4548004     2.3906502    -0.8371399
H          -1.3941145     2.7583274    -1.2349959
C           0.7464144     3.0515652    -1.0551579
H           0.7944447     3.9759236    -1.6274182
N           1.9075882     2.5929707    -0.5753194
C           1.8887095     1.4494554     0.1513502
N           0.7612065     0.7752011     0.4503706
C          -0.3810301     1.2406755    -0.0466506
H          -1.2785383     0.6780320     0.2076102
C           1.3144680    -3.7986527    -0.5664070
H           0.8246221    -4.6709914    -0.9907384
C           1.7510874    -3.8083619     0.7579764
H           1.6009333    -4.6895127     1.3764383
C           2.3880711    -2.6912863     1.2977586
H           2.7005149    -2.7117171     2.3375639
C           2.5728710    -1.5197200     0.5442819
C           2.1573173    -1.5434558    -0.8004045
H           2.3559993    -0.6851271    -1.4350582
C           1.5280969    -2.6591514    -1.3453612
H           1.2193198    -2.6452398    -2.3876076
31
122_C16H12N2O_4-6-26-24 (45,) energy =    -801.6588508
C           5.2254446     1.5891319     1.9049392
H           5.9218133     2.3674237     2.1994319
C           5.4046252     0.2661715     2.2690417
H           6.2634538    -0.0172536     2.8719011
C           4.5122122    -0.7154553     1.8275022
H           4.7119074    -1.7608290     2.0385461
C           3.4037021    -0.3831315     1.0449110
C           3.1480169     0.9877656     0.7421131
C           4.1191644     1.9595320     1.1246159
O           4.0267810     3.2659143     0.8074956
H           3.2724058     3.3617892     0.1698189
C          -0.4982996     2.3409289    -0.8222339
H          -1.4423930     2.6904803    -1.2250159
C           0.6755002     3.0700350    -0.9578842
H           0.6954732     4.0319259    -1.4664101
N           1.8423955     2.6345076    -0.4723783
C           1.8595564     1.4445581     0.1766919
N           0.7575914     0.7011741     0.3941160
C          -0.3912272     1.1452574    -0.1073877
H          -1.2670680     0.5253701     0.0806943
C           1.2750551    -3.7736130    -0.5456842
H           0.7658839    -4.6433537    -0.9524110
C           1.5731345    -3.7045053     0.8153111
H           1.2929621    -4.5197864     1.4774749
C           2.2337134    -2.5907051     1.3345498
H           2.4504460    -2.5397470     2.3979447
C           2.5894014    -1.5125713     0.5101530
C           2.2993048    -1.6047887    -0.8618385
H           2.6071071    -0.8014834    -1.5256602
C           1.6463659    -2.7187491    -1.3833062
H           1.4370778    -2.7695395    -2.4489136
31
122_C16H12N2O_4-6-26-24 (60,) energy =    -801.6594242
C           5.2580921     1.5971507     1.8712326
H           5.9507511     2.3786462     2.1661329
C           5.4824229     0.2650993     2.1709181
H           6.3750224    -0.0229710     2.7201709
C           4.5867473    -0.7162950     1.7341301
H           4.8018168    -1.7660019     1.9070825
C           3.4315792    -0.3736050     1.0295139
C           3.1462465     0.9988295     0.7682190
C           4.1125418     1.9754701     1.1535908
O           3.9861747     3.2904855     0.8902853
H           3.2051402     3.3956055     0.2859985
C          -0.5234571     2.2926137    -0.7938049
H          -1.4723041     2.6250961    -1.1998283
C           0.6200457     3.0781027    -0.8547283
H           0.6093853     4.0689792    -1.3044788
N           1.7926309     2.6643903    -0.3653456
C           1.8485133     1.4387472     0.2119947
N           0.7757728     0.6375830     0.3539214
C          -0.3797419     1.0613162    -0.1499618
H          -1.2308149     0.3933292    -0.0227902
C           1.2409449    -3.7379522    -0.5290486
H           0.7087405    -4.5995817    -0.9235199
C           1.3872595    -3.5720061     0.8488788
H           0.9646183    -4.3026935     1.5339239
C           2.0753425    -2.4685365     1.3543348
H           2.1808194    -2.3381149     2.4279059
C           2.6192150    -1.5066657     0.4920324
C           2.4736625    -1.6880114    -0.8919373
H           2.9102782    -0.9617216    -1.5726432
C           1.7903366    -2.7922513    -1.3979265
H           1.6935832    -2.9191840    -2.4733447
31
122_C16H12N2O_4-6-26-24 (75,) energy =    -801.6586889
C           5.2888605     1.5825253     1.8286944
H           5.9798700     2.3645548     2.1260954
C           5.5549298     0.2436389     2.0503748
H           6.4799464    -0.0516789     2.5388042
C           4.6521575    -0.7331566     1.6172929
H           4.8856818    -1.7855233     1.7442437
C           3.4526946    -0.3820327     0.9974033
C           3.1372302     0.9940122     0.7931695
C           4.1034766     1.9707730     1.1846655
O           3.9480412     3.2937775     0.9888432
H           3.1356401     3.4147522     0.4287252
C          -0.5491384     2.2721819    -0.7494539
H          -1.5002540     2.6003199    -1.1536371
C           0.5631106     3.1031326    -0.7140262
H           0.5241414     4.1262957    -1.0826044
N           1.7379460     2.6960996    -0.2264171
C           1.8317493     1.4299829     0.2519853
N           0.7893553     0.5799459     0.2930657
C          -0.3698873     0.9980741    -0.2066836
H          -1.1942560     0.2873966    -0.1608032
C           1.2137131    -3.7410140    -0.5105976
H           0.6667801    -4.6001455    -0.8902529
C           1.1981417    -3.4444488     0.8538876
H           0.6349972    -4.0708873     1.5412157
C           1.9024193    -2.3438859     1.3413106
H           1.8824129    -2.1104763     2.4022743
C           2.6315791    -1.5208526     0.4729727
C           2.6466423    -1.8294531    -0.8940586
H           3.2188579    -1.2044512    -1.5749347
C           1.9421762    -2.9302382    -1.3826276
H           1.9686275    -3.1580321    -2.4453739
31
122_C16H12N2O_4-6-26-24 (90,) energy =    -801.6580247
C           5.3208628     1.5550362     1.7452121
H           5.9883478     2.3244392     2.1193104
C           5.6732446     0.2186540     1.7321333
H           6.6475384    -0.0894259     2.1026565
C           4.7690646    -0.7406878     1.2645341
H           5.0327739    -1.7932315     1.2855839
C           3.5164656    -0.3742239     0.7722860
C           3.1353629     1.0017779     0.7552468
C           4.0585868     1.9590832     1.2821311
O           3.8045601     3.2779334     1.3631856
H           2.8554087     3.4125268     1.0947971
C          -0.5246084     2.3320323    -0.8153464
H          -1.4726605     2.6734835    -1.2155830
C           0.2941957     3.1550797    -0.0530729
H           0.0215264     4.1848043     0.1694876
N           1.4575983     2.7322664     0.4467838
C           1.8457774     1.4566105     0.1917582
N           1.1237080     0.6114292    -0.5656739
C          -0.0365454     1.0449033    -1.0488090
H          -0.5960248     0.3345972    -1.6565440
C           1.1339035    -3.8246620    -0.2244393
H           0.5565769    -4.7145712    -0.4614291
C           1.0107909    -3.2191204     1.0264522
H           0.3403027    -3.6388440     1.7723151
C           1.7583787    -2.0802906     1.3319037
H           1.6687954    -1.6187678     2.3119737
C           2.6246419    -1.5185858     0.3851006
C           2.7577150    -2.1466505    -0.8606395
H           3.4406490    -1.7292550    -1.5954587
C           2.0142036    -3.2857201    -1.1657965
H           2.1255797    -3.7564781    -2.1394711
31
122_C16H12N2O_4-6-26-24 (105,) energy =    -801.6590538
C           5.3348927     1.5720367     1.6951241
H           5.9934057     2.3430971     2.0815734
C           5.7349976     0.2527433     1.5828633
H           6.7380980    -0.0365376     1.8853964
C           4.8412633    -0.7167698     1.1157647
H           5.1364591    -1.7607593     1.0844309
C           3.5507747    -0.3712820     0.7135344
C           3.1315110     0.9904073     0.7740890
C           4.0365496     1.9509738     1.3190606
O           3.7299884     3.2512644     1.4874588
H           2.7613305     3.3532009     1.2896906
C          -0.5394342     2.2971256    -0.7775294
H          -1.4906655     2.6323966    -1.1755368
C           0.1926770     3.0596922     0.1230928
H          -0.1537740     4.0344024     0.4609402
N           1.3592159     2.6424917     0.6226172
C           1.8341618     1.4364708     0.2227644
N           1.2072065     0.6593109    -0.6798788
C           0.0415734     1.0852553    -1.1576498
H          -0.4435870     0.4350970    -1.8847389
C           1.0852316    -3.7883730    -0.1786687
H           0.4812816    -4.6676713    -0.3869751
C           0.8488073    -3.0285931     0.9687082
H           0.0637377    -3.3187672     1.6625994
C           1.6264135    -1.9025254     1.2374556
H           1.4475334    -1.3212280     2.1384273
C           2.6456591    -1.5096769     0.3579101
C           2.8886748    -2.2909844    -0.7797404
H           3.6841973    -2.0022512    -1.4612501
C           2.1101985    -3.4163823    -1.0504536
H           2.3069357    -4.0049810    -1.9430683
31
122_C16H12N2O_4-6-26-24 (120,) energy =    -801.6594163
C           5.3631568     1.5746348     1.6443490
H           6.0204875     2.3485156     2.0270807
C           5.7909526     0.2714250     1.4620247
H           6.8153158    -0.0007842     1.7028280
C           4.8993944    -0.7067392     1.0102610
H           5.2166333    -1.7426076     0.9453178
C           3.5777994    -0.3858095     0.6941470
C           3.1378568     0.9667481     0.8000499
C           4.0395138     1.9306670     1.3415948
O           3.7060968     3.2166688     1.5643563
H           2.7273589     3.2965677     1.4171842
C          -0.5319021     2.2900011    -0.7356697
H          -1.4814856     2.6309304    -1.1328748
C           0.1547057     2.9980514     0.2417662
H          -0.2274318     3.9342460     0.6439290
N           1.3192640     2.5727434     0.7407019
C           1.8357694     1.4147525     0.2604345
N           1.2576127     0.6956222    -0.7203363
C           0.0933399     1.1284080    -1.1954432
H          -0.3535950     0.5278513    -1.9868339
C           1.0689994    -3.7789465    -0.1666180
H           0.4488835    -4.6484018    -0.3684223
C           0.7273012    -2.8935004     0.8585995
H          -0.1571482    -3.0760743     1.4638893
C           1.5223379    -1.7791122     1.1173807
H           1.2592889    -1.1023191     1.9261250
C           2.6752666    -1.5261658     0.3571372
C           3.0149050    -2.4285885    -0.6606040
H           3.9018161    -2.2422650    -1.2600509
C           2.2163380    -3.5418968    -0.9244973
H           2.4919914    -4.2240026    -1.7248134
31
122_C16H12N2O_4-6-26-24 (135,) energy =    -801.6581520
C           5.3775803     1.5959703     1.5793136
H           6.0347587     2.3784312     1.9443532
C           5.8269482     0.3087534     1.3418323
H           6.8700353     0.0591039     1.5177961
C           4.9365535    -0.6842166     0.9233282
H           5.2777988    -1.7107243     0.8394262
C           3.5868624    -0.3983819     0.6984901
C           3.1305577     0.9477228     0.8300349
C           4.0316450     1.9217014     1.3519475
O           3.6757501     3.1951397     1.6141539
H           2.6896161     3.2501227     1.5237172
C          -0.5343802     2.3014129    -0.6898005
H          -1.4805318     2.6522932    -1.0866115
C           0.1103602     2.9468191     0.3567382
H          -0.3026134     3.8421963     0.8171625
N           1.2711186     2.5080872     0.8549585
C           1.8238331     1.4007883     0.3026307
N           1.2895554     0.7467762    -0.7467521
C           0.1289781     1.1917022    -1.2197721
H          -0.2833103     0.6457146    -2.0674898
C           1.0510712    -3.7772583    -0.1613866
H           0.4194859    -4.6372141    -0.3680084
C           0.6267474    -2.7892696     0.7307137
H          -0.3356720    -2.8809483     1.2279014
C           1.4350277    -1.6863195     0.9932501
H           1.1044511    -0.9364356     1.7064249
C           2.6930351    -1.5487390     0.3825439
C           3.1048312    -2.5479719    -0.5131717
H           4.0586011    -2.4456262    -1.0227654
C           2.2934603    -3.6502025    -0.7828411
H           2.6321545    -4.4070389    -1.4857464
31
122_C16H12N2O_4-6-26-24 (150,) energy =    -801.6545100
C           5.3713000     1.6527524     1.5101418
H           6.0249099     2.4496177     1.8493876
C           5.8427455     0.3836615     1.2230598
H           6.9016806     0.1628939     1.3286572
C           4.9588600    -0.6311566     0.8477731
H           5.3332557    -1.6440014     0.7493479
C           3.5853780    -0.3938945     0.7214131
C           3.1089650     0.9455513     0.8685112
C           4.0060775     1.9376072     1.3607772
O           3.6249133     3.1977172     1.6555808
H           2.6352431     3.2216402     1.6249007
C          -0.5510407     2.3244823    -0.6400742
H          -1.4932058     2.6850388    -1.0377893
C           0.0516971     2.9056969     0.4670395
H          -0.3919732     3.7583444     0.9773215
N           1.2082615     2.4545899     0.9662900
C           1.7965481     1.4005530     0.3520564
N           1.3055263     0.8122254    -0.7561236
C           0.1493116     1.2682635    -1.2291862
H          -0.2286687     0.7771737    -2.1251074
C           1.0467285    -3.7765407    -0.1677865
H           0.4116203    -4.6296263    -0.3910947
C           0.5570449    -2.7097091     0.5885470
H          -0.4628114    -2.7299708     0.9643444
C           1.3701186    -1.6151048     0.8692517
H           0.9801462    -0.8148247     1.4902023
C           2.7047094    -1.5614990     0.4289009
C           3.1733841    -2.6369473    -0.3463337
H           4.1763180    -2.6031009    -0.7597353
C           2.3599120    -3.7318570    -0.6353898
H           2.7527913    -4.5456496    -1.2394183
31
122_C16H12N2O_4-6-26-24 (165,) energy =    -801.6483727
C           5.3745638     1.6644736     1.4352230
H           6.0288889     2.4682515     1.7561354
C           5.8543240     0.4152592     1.0839279
H           6.9224708     0.2169409     1.1132093
C           4.9727564    -0.6129998     0.7423825
H           5.3788231    -1.6085327     0.6126488
C           3.5856515    -0.4180626     0.7187441
C           3.0990289     0.9172863     0.8938550
C           3.9974644     1.9170583     1.3665602
O           3.6020882     3.1624389     1.7070621
H           2.6133079     3.1634511     1.7323657
C          -0.5356382     2.3779230    -0.5979614
H          -1.4683463     2.7634314    -0.9946206
C           0.0264073     2.8709695     0.5714017
H          -0.4410674     3.6761263     1.1348283
N           1.1719061     2.3890406     1.0696101
C           1.7868133     1.3926871     0.3904567
N           1.3374567     0.8927764    -0.7777313
C           0.1928760     1.3785417    -1.2494057
H          -0.1521983     0.9601851    -2.1941874
C           1.0432599    -3.8196516    -0.1628602
H           0.4082637    -4.6707486    -0.3935665
C           0.5077928    -2.6745531     0.4273408
H          -0.5511981    -2.6278300     0.6681333
C           1.3220737    -1.5824901     0.7156591
H           0.8810903    -0.7349442     1.2266201
C           2.7059280    -1.6000476     0.4593643
C           3.2179126    -2.7585920    -0.1580791
H           4.2602929    -2.8044742    -0.4514552
C           2.4065648    -3.8522673    -0.4536720
H           2.8438093    -4.7268603    -0.9283424
31
122_C16H12N2O_4-6-26-24 (180,) energy =    -801.6412697
C           5.3816244     1.6235485     1.3983677
H           6.0739550     2.4275693     1.6247652
C           5.6597351     0.2998665     1.6860341
H           6.5935997     0.0352649     2.1748183
C           4.7748065    -0.7116058     1.3062012
H           5.0961484    -1.7322593     1.4599375
C           3.5654197    -0.4384647     0.6507784
C           3.1777006     0.9402112     0.5580852
C           4.1496043     1.9485937     0.8165231
O           3.9259624     3.2623837     0.5890129
H           3.0961704     3.3360490     0.0588163
C          -0.7474367     2.4078604     0.4744661
H          -1.7601052     2.7957258     0.4740213
C           0.2785263     3.0274270    -0.2255116
H           0.1106973     3.9380047    -0.7973057
N           1.5284134     2.5459798    -0.2344656
C           1.7747634     1.4190476     0.4718758
N           0.8494218     0.7817311     1.2180267
C          -0.3867185     1.2731342     1.2066342
H          -1.1184870     0.7441998     1.8160414
C           1.2326505    -3.8193211    -0.8079335
H           0.6505402    -4.6678086    -1.1569500
C           0.7917052    -2.5151348    -1.0228024
H          -0.1395225    -2.3328028    -1.5530732
C           1.5361237    -1.4288304    -0.5680653
H           1.1749583    -0.4430624    -0.8181049
C           2.7626885    -1.5872559     0.1064150
C           3.1865681    -2.9197948     0.3012297
H           4.1136360    -3.1358161     0.8163605
C           2.4446747    -4.0099872    -0.1466081
H           2.8207468    -5.0145115     0.0291388
