18
175_C5H11NO_11-0-5-10 (-165,) energy =    -327.1449015
N           1.3060928    -0.0300149    -0.1729967
C           0.7729737     1.3235518    -0.2690390
H           0.6783969     1.7884223     0.7229405
H          -0.2160325     1.3047225    -0.7392029
H           1.4543524     1.9232578    -0.8707706
C           2.6546423    -0.2113761    -0.3939604
C           3.1971694    -1.6338421    -0.2979619
H           2.5550831    -2.3734339    -0.7865727
H           3.3252661    -1.9355701     0.7489379
H           4.1793106    -1.6365509    -0.7726238
O           3.4016412     0.7246821    -0.6596673
C           0.4328077    -1.0275573     0.4455431
C          -0.5765208    -1.6475251    -0.5277032
H          -1.2151946    -0.8826588    -0.9822874
H          -1.2253946    -2.3589126    -0.0037951
H          -0.0633913    -2.1801218    -1.3356482
H          -0.1002316    -0.5401976     1.2735416
H           1.0433994    -1.8128291     0.8960205
18
175_C5H11NO_11-0-5-10 (-150,) energy =    -327.1430897
N           1.2346375    -0.4959042     0.3237855
C           0.6974651    -0.0350047     1.6018862
H           0.6761791    -0.8400151     2.3507098
H          -0.3205497     0.3358816     1.4530919
H           1.3245069     0.7686739     1.9870256
C           2.6126564    -0.5864199     0.2442497
C           3.2117523    -1.0374323    -1.0833372
H           4.2319888    -0.6519676    -1.1259714
H           2.6506510    -0.6837688    -1.9533217
H           3.2678765    -2.1319192    -1.1319168
O           3.3331803    -0.3095240     1.1959249
C           0.3410561    -1.3597607    -0.4557498
C          -0.6889038    -0.5823811    -1.2807796
H          -1.3219447     0.0472740    -0.6464870
H          -1.3432305    -1.2744926    -1.8233207
H          -0.1917282     0.0666026    -2.0094754
H          -0.1707632    -2.0430777     0.2378889
H           0.9401769    -1.9876048    -1.1182741
18
175_C5H11NO_11-0-5-10 (-135,) energy =    -327.1398431
N           1.2718566    -0.4257492     0.2544305
C           0.7410833     0.0265437     1.5420161
H           0.6853628    -0.7910010     2.2752359
H          -0.2596947     0.4397746     1.3921128
H           1.3914271     0.8005324     1.9499076
C           2.6411897    -0.6796851     0.2593994
C           3.2799229    -1.0520116    -1.0731911
H           4.2996662    -0.6605184    -1.0687858
H           2.7401532    -0.6560398    -1.9375178
H           3.3502340    -2.1420607    -1.1721792
O           3.3106089    -0.6138555     1.2811183
C           0.3669258    -1.3289148    -0.4750542
C          -0.7567407    -0.5974450    -1.2129604
H          -1.3903576    -0.0244329    -0.5280450
H          -1.3982626    -1.3178835    -1.7333077
H          -0.3446594     0.0968623    -1.9526641
H          -0.0556259    -2.0552135     0.2365396
H           0.9521844    -1.9053610    -1.1953100
18
175_C5H11NO_11-0-5-10 (-120,) energy =    -327.1350954
N           1.3252568    -0.4114687     0.2749492
C           0.7822581     0.0581435     1.5547485
H           0.6120551    -0.7654557     2.2632945
H          -0.1629563     0.5759277     1.3739741
H           1.4853522     0.7554758     2.0120155
C           2.6616767    -0.8326137     0.3676595
C           3.3764063    -1.0975335    -0.9507907
H           4.3653946    -0.6340268    -0.8911393
H           2.8454069    -0.7000607    -1.8187753
H           3.5352544    -2.1738684    -1.0833061
O           3.2250899    -1.0051511     1.4366813
C           0.3983478    -1.3245632    -0.4233588
C          -0.7652521    -0.6044143    -1.1063459
H          -1.3945029    -0.0662818    -0.3902800
H          -1.4024451    -1.3302426    -1.6243938
H          -0.3934187     0.1170879    -1.8412180
H           0.0195659    -2.0688509     0.2953532
H           0.9637775    -1.8786944    -1.1783776
18
175_C5H11NO_11-0-5-10 (-105,) energy =    -327.1295454
N           1.3336563    -0.3841979     0.1813557
C           0.8225092     0.1336668     1.4594506
H           0.5983157    -0.6658363     2.1802862
H          -0.0852080     0.7125068     1.2717333
H           1.5681557     0.7939549     1.9067993
C           2.6312758    -0.9449086     0.3215786
C           3.4376444    -1.0255246    -0.9628803
H           4.0834613    -0.1393439    -1.0064920
H           2.8165538    -1.0169979    -1.8618694
H           4.0811589    -1.9084148    -0.9488321
O           3.0770865    -1.3295710     1.3872477
C           0.3632620    -1.3086667    -0.4473024
C          -0.8163726    -0.5894101    -1.1015647
H          -1.4201886    -0.0391924    -0.3729576
H          -1.4735686    -1.3178109    -1.5901852
H          -0.4624907     0.1202861    -1.8564306
H           0.0057587    -2.0299530     0.3057787
H           0.8899920    -1.8904228    -1.2112081
18
175_C5H11NO_11-0-5-10 (-90,) energy =    -327.1243023
N           1.3548516    -0.3929163     0.1178836
C           0.8754709     0.1711436     1.3911352
H           0.5885957    -0.6003372     2.1207634
H           0.0154738     0.8161650     1.1940805
H           1.6644995     0.7838180     1.8345848
C           2.6124777    -1.0671421     0.2973388
C           3.5195352    -1.0042717    -0.9137032
H           4.0007034    -0.0182252    -0.9353355
H           2.9547085    -1.0966587    -1.8464871
H           4.2909139    -1.7746897    -0.8534120
O           2.9122322    -1.6530734     1.3180304
C           0.3535466    -1.3235686    -0.4546352
C          -0.8578110    -0.6049078    -1.0475759
H          -1.4381623    -0.0756738    -0.2852017
H          -1.5261640    -1.3316147    -1.5232300
H          -0.5407153     0.1220911    -1.8023165
H           0.0360804    -2.0506553     0.3117701
H           0.8446459    -1.8985772    -1.2489524
18
175_C5H11NO_11-0-5-10 (-75,) energy =    -327.1224723
N           1.2604457    -1.1102626     0.6343968
C           1.0894738     0.2507745     1.1467494
H           0.2399076     0.2461442     1.8377735
H           0.8988229     1.0212062     0.3830958
H           1.9741799     0.5455378     1.7179850
C           2.4379089    -1.3608274    -0.1287772
C           3.1461125    -0.1820700    -0.7854417
H           3.6127748     0.4607634    -0.0295615
H           2.4578819     0.4443439    -1.3636736
H           3.9308296    -0.5729434    -1.4350927
O           2.9361394    -2.4705359    -0.1433334
C           0.0290069    -1.6558632     0.0276201
C          -0.4705083    -0.9501603    -1.2407686
H          -0.7017152     0.1062192    -1.0660813
H          -1.3891036    -1.4335992    -1.5926817
H           0.2663283    -1.0107418    -2.0500349
H          -0.7509963    -1.6312630     0.7985842
H           0.2256025    -2.7107063    -0.1885636
18
175_C5H11NO_11-0-5-10 (-60,) energy =    -327.1297477
N           1.2742838    -1.0524607     0.5490351
C           1.0826673     0.3078088     1.0529419
H           0.2563787     0.2894454     1.7709534
H           0.8451137     1.0578765     0.2830551
H           1.9755492     0.6380478     1.5894435
C           2.4282769    -1.3302506    -0.2120827
C           3.2838096    -0.1588837    -0.6791717
H           3.7909979     0.3179659     0.1682290
H           2.6943157     0.6141489    -1.1843622
H           4.0445603    -0.5487190    -1.3569574
O           2.8095723    -2.4787937    -0.3696071
C           0.0333819    -1.6701407     0.0416721
C          -0.5622892    -1.0050633    -1.2050469
H          -0.8359791     0.0409780    -1.0295022
H          -1.4713038    -1.5368083    -1.5088185
H           0.1410592    -1.0403734    -2.0450101
H          -0.6980592    -1.6648151     0.8588836
H           0.2703457    -2.7161761    -0.1698768
18
175_C5H11NO_11-0-5-10 (-45,) energy =    -327.1366572
N           1.2613123    -1.0136904     0.4558002
C           1.0642043     0.3358352     0.9810035
H           0.2661104     0.2985555     1.7292810
H           0.7822207     1.0815075     0.2221916
H           1.9693150     0.6834517     1.4836974
C           2.3942081    -1.3059799    -0.3085492
C           3.3780623    -0.1752202    -0.5839132
H           3.8902581     0.1311175     0.3362467
H           2.8933645     0.7134485    -1.0027460
H           4.1261729    -0.5509782    -1.2831247
O           2.6628398    -2.4555911    -0.6289984
C           0.0188565    -1.6907398     0.0439663
C          -0.6624899    -1.0733032    -1.1822686
H          -0.9579481    -0.0317859    -1.0136862
H          -1.5688577    -1.6383888    -1.4279260
H           0.0004383    -1.1073738    -2.0540559
H          -0.6641409    -1.6865296     0.9019064
H           0.2830911    -2.7308565    -0.1580669
18
175_C5H11NO_11-0-5-10 (-30,) energy =    -327.1420239
N           1.2486826    -0.9470367     0.3656763
C           1.0528665     0.3845350     0.9295513
H           0.2848888     0.3223107     1.7070048
H           0.7293039     1.1356875     0.1931201
H           1.9706916     0.7398020     1.4018742
C           2.3698208    -1.2493186    -0.3942983
C           3.4520483    -0.1822123    -0.5089880
H           3.9225588     0.0118512     0.4624171
H           3.0627762     0.7707509    -0.8842084
H           4.2132001    -0.5594021    -1.1928793
O           2.5396861    -2.3662888    -0.8690311
C           0.0192652    -1.6875615     0.0446113
C          -0.7343276    -1.1409267    -1.1723843
H          -1.0464636    -0.0998037    -1.0313468
H          -1.6363721    -1.7364652    -1.3537391
H          -0.1074612    -1.1968342    -2.0686191
H          -0.6226473    -1.6689960     0.9333912
H           0.3137071    -2.7232323    -0.1323867
18
175_C5H11NO_11-0-5-10 (-15,) energy =    -327.1451511
N           1.2410556    -0.8697434     0.2771513
C           1.0547825     0.4282919     0.9109916
H           0.3571535     0.3168302     1.7475868
H           0.6462935     1.1891196     0.2287687
H           1.9971676     0.8011245     1.3149140
C           2.3589989    -1.1833353    -0.4699077
C           3.5252853    -0.2021566    -0.4389653
H           3.9286129    -0.0843446     0.5736931
H           3.2386403     0.7920674    -0.8002244
H           4.3072329    -0.6056685    -1.0830664
O           2.4418283    -2.2382449    -1.0911273
C           0.0311196    -1.6661215     0.0398784
C          -0.7905978    -1.1919237    -1.1631548
H          -1.1222649    -0.1533092    -1.0489174
H          -1.6837259    -1.8163263    -1.2806953
H          -0.1983390    -1.2699013    -2.0802317
H          -0.5719328    -1.6323193     0.9551451
H           0.3540661    -2.6966988    -0.1151458
18
175_C5H11NO_11-0-5-10 (0,) energy =    -327.1459112
N           1.2473504    -0.7772088     0.1498522
C           1.0428767     0.4402906     0.9155773
H           0.7475958     0.2056030     1.9474680
H           0.2507595     1.0583349     0.4710769
H           1.9526903     1.0379064     0.9503592
C           2.4085272    -1.1228312    -0.5002878
C           3.6260094    -0.2211696    -0.3227816
H           3.9011323    -0.0960930     0.7304670
H           3.4607233     0.7757357    -0.7478616
H           4.4541775    -0.6932237    -0.8523151
O           2.4722107    -2.1308630    -1.1992743
C           0.0822520    -1.6512867    -0.0165944
C          -0.7739904    -1.2912607    -1.2343155
H          -1.1400984    -0.2590574    -1.1826936
H          -1.6454215    -1.9533877    -1.2966482
H          -0.1876828    -1.4080245    -2.1503739
H          -0.5109000    -1.5888350     0.9041248
H           0.4527701    -2.6734433    -0.1152213
18
175_C5H11NO_11-0-5-10 (15,) energy =    -327.1449440
N           1.2359187    -0.6805259    -0.0238133
C           1.1005232     0.4873143     0.8328389
H           1.1662520     0.2335518     1.9023657
H           0.1251359     0.9531022     0.6567487
H           1.8638936     1.2320687     0.6047901
C           2.4370439    -1.1318458    -0.5247893
C           3.6843479    -0.3137339    -0.2093832
H           3.8193327    -0.1528824     0.8659233
H           3.6510470     0.6701571    -0.6925948
H           4.5404323    -0.8632591    -0.6022444
O           2.5018128    -2.1270227    -1.2401850
C           0.0797548    -1.5823952    -0.0758158
C          -0.9310498    -1.1990025    -1.1594066
H          -1.3085777    -0.1787945    -1.0210961
H          -1.7901470    -1.8797329    -1.1384420
H          -0.4649944    -1.2620833    -2.1473981
H          -0.3974655    -1.5780096     0.9134360
H           0.4627115    -2.5866253    -0.2659464
18
175_C5H11NO_11-0-5-10 (30,) energy =    -327.1419373
N           1.2482233    -0.6374192    -0.2011267
C           1.1083957     0.5124602     0.6838821
H           1.2310215     0.2519361     1.7475210
H           0.1086418     0.9378730     0.5555026
H           1.8286513     1.2915537     0.4290716
C           2.4912225    -1.1337725    -0.5623214
C           3.7202793    -0.3696164    -0.0845737
H           3.7280506    -0.2234297     1.0012687
H           3.7800294     0.6200341    -0.5531573
H           4.5980887    -0.9449444    -0.3807720
O           2.6041601    -2.0905901    -1.3193856
C           0.1264570    -1.5878446    -0.1522391
C          -1.0407242    -1.1894584    -1.0575902
H          -1.4492872    -0.2067191    -0.7939459
H          -1.8534364    -1.9201007    -0.9718370
H          -0.7158980    -1.1548346    -2.1020624
H          -0.2111281    -1.6718719     0.8915011
H           0.5194252    -2.5572331    -0.4632834
18
175_C5H11NO_11-0-5-10 (45,) energy =    -327.1368165
N           1.2599723    -0.6000241    -0.3452009
C           1.1183879     0.5425961     0.5530236
H           1.2423041     0.2778387     1.6160989
H           0.1176297     0.9657096     0.4280592
H           1.8356572     1.3254947     0.3001264
C           2.5289693    -1.1124238    -0.6268650
C           3.7306901    -0.4404599     0.0260241
H           3.6207545    -0.3381640     1.1111131
H           3.8917983     0.5628913    -0.3863877
H           4.6086951    -1.0470571    -0.1994065
O           2.6858369    -1.9826092    -1.4717793
C           0.1757853    -1.5896900    -0.2003268
C          -1.0944970    -1.2120639    -0.9637279
H          -1.5133966    -0.2575646    -0.6245884
H          -1.8636668    -1.9794249    -0.8184390
H          -0.8839344    -1.1307806    -2.0345284
H          -0.0462682    -1.7162582     0.8710434
H           0.5608502    -2.5372880    -0.5820352
18
175_C5H11NO_11-0-5-10 (60,) energy =    -327.1301854
N           1.2675508    -0.5592138    -0.4928613
C           1.1186342     0.5901645     0.3986487
H           1.2350467     0.3380725     1.4664231
H           0.1193578     1.0126327     0.2624215
H           1.8377336     1.3706276     0.1414390
C           2.5650465    -1.0635035    -0.7179252
C           3.7106087    -0.5176295     0.1256372
H           3.4806044    -0.5124755     1.1966091
H           3.9538311     0.5118502    -0.1637332
H           4.5873300    -1.1387748    -0.0631190
O           2.7860274    -1.8147547    -1.6534477
C           0.2361420    -1.5896807    -0.2508694
C          -1.1201475    -1.2474855    -0.8685526
H          -1.5503523    -0.3314368    -0.4485356
H          -1.8320776    -2.0595971    -0.6811578
H          -1.0217331    -1.1145654    -1.9502907
H           0.1302232    -1.7497528     0.8350744
H           0.6067257    -2.5176709    -0.6928936
18
175_C5H11NO_11-0-5-10 (75,) energy =    -327.1233464
N           1.2521841    -0.4955769    -0.6242494
C           1.1003332     0.6712252     0.2468218
H           1.2348238     0.4492527     1.3198870
H           0.0952036     1.0800379     0.1138437
H           1.8070172     1.4529855    -0.0421843
C           2.5812693    -0.9815759    -0.7979568
C           3.6362776    -0.6107917     0.2369048
H           3.2891489    -0.7882346     1.2612765
H           3.9036674     0.4498512     0.1637132
H           4.5303773    -1.2036115     0.0384187
O           2.8844162    -1.5933434    -1.8043297
C           0.2898378    -1.5660400    -0.2816383
C          -1.1349901    -1.2683623    -0.7491440
H          -1.5569620    -0.3813495    -0.2645475
H          -1.7895254    -2.1142010    -0.5093857
H          -1.1535372    -1.1095703    -1.8317200
H           0.3005058    -1.7490783     0.8074896
H           0.6402910    -2.4774427    -0.7743466
18
175_C5H11NO_11-0-5-10 (90,) energy =    -327.1232400
N           1.3481354    -0.1535781     0.2607190
C           0.7963949     1.1627526    -0.1011652
H           0.1963620     1.5253242     0.7399578
H           0.1790396     1.1560963    -1.0079512
H           1.6214919     1.8636204    -0.2588849
C           2.1994963    -0.6725068    -0.7728553
C           3.3728341    -1.4763775    -0.2525299
H           3.8051790    -2.0820723    -1.0515223
H           3.0821547    -2.1074258     0.5933813
H           4.1341674    -0.7811285     0.1231525
O           1.9866138    -0.5117501    -1.9588030
C           0.2799599    -1.1108766     0.6381205
C          -0.7766398    -1.4269617    -0.4291933
H          -1.3737809    -0.5472864    -0.6889683
H          -1.4623157    -2.1909771    -0.0443970
H          -0.3197140    -1.8065858    -1.3480170
H          -0.2032579    -0.7019419     1.5339790
H           0.7683313    -2.0424610     0.9508874
18
175_C5H11NO_11-0-5-10 (105,) energy =    -327.1288846
N           1.3389647    -0.1055807     0.2465308
C           0.7491157     1.1955010    -0.1048204
H           0.1569616     1.5439704     0.7475561
H           0.1150418     1.1684083    -0.9992971
H           1.5525890     1.9130517    -0.2878041
C           2.2371488    -0.5739841    -0.7472109
C           3.2838127    -1.5586128    -0.2559402
H           3.5361561    -2.2656536    -1.0496743
H           2.9817270    -2.0907402     0.6493507
H           4.1896204    -0.9896494    -0.0103421
O           2.1828103    -0.2219256    -1.9123164
C           0.3102398    -1.0907059     0.6504836
C          -0.7067494    -1.4796024    -0.4307364
H          -1.3211628    -0.6296418    -0.7430807
H          -1.3805838    -2.2500112    -0.0382091
H          -0.2103517    -1.8808734    -1.3204918
H          -0.2074266    -0.6710443     1.5212575
H           0.8250210    -1.9916805     1.0031825
18
175_C5H11NO_11-0-5-10 (120,) energy =    -327.1350579
N           1.3419102    -0.0184065     0.2023898
C           0.6982910     1.2595739    -0.1252370
H           0.0609489     1.5494774     0.7161769
H           0.0951883     1.2239075    -1.0412308
H           1.4677107     2.0208253    -0.2668245
C           2.3322047    -0.3935956    -0.7179044
C           3.2138268    -1.5662596    -0.3099333
H           2.8224156    -2.4992526    -0.7336748
H           3.2931480    -1.6794062     0.7742669
H           4.2062655    -1.4076371    -0.7386956
O           2.4555846     0.1447898    -1.8072153
C           0.3797754    -1.0652157     0.5973052
C          -0.5700290    -1.5327262    -0.5131507
H          -1.2085712    -0.7204440    -0.8738500
H          -1.2231216    -2.3260318    -0.1315757
H          -0.0158792    -1.9310293    -1.3703592
H          -0.1956554    -0.6730481     1.4440496
H           0.9453046    -1.9217377     0.9802236
18
175_C5H11NO_11-0-5-10 (135,) energy =    -327.1403043
N           1.4258805    -0.0135997     0.1553354
C           0.8250599     1.2780249    -0.1867218
H           0.1353398     1.5631604     0.6138024
H           0.2832669     1.2618907    -1.1414111
H           1.6129765     2.0279181    -0.2686310
C           2.5094350    -0.3735122    -0.6408611
C           3.2466013    -1.6508694    -0.2583741
H           2.7464499    -2.5298669    -0.6832723
H           3.3171295    -1.7884853     0.8247184
H           4.2481015    -1.5973471    -0.6892139
O           2.8484445     0.2869887    -1.6135858
C           0.4601140    -1.0428091     0.5674391
C          -0.4626277    -1.5426878    -0.5516245
H          -1.0689966    -0.7325891    -0.9690967
H          -1.1463936    -2.3048151    -0.1602384
H           0.1122749    -1.9900312    -1.3703118
H          -0.1378461    -0.6214566     1.3842216
H           1.0123253    -1.8854709     0.9946388
18
175_C5H11NO_11-0-5-10 (150,) energy =    -327.1437512
N           1.4060905    -0.0142787     0.0865155
C           0.8148025     1.2867976    -0.2217915
H           0.1193782     1.5557560     0.5794468
H           0.2767948     1.2930498    -1.1792866
H           1.6079645     2.0322253    -0.2836692
C           2.5561233    -0.3342054    -0.6134512
C           3.2159901    -1.6722790    -0.3003541
H           2.6499696    -2.5075370    -0.7298823
H           3.3107061    -1.8485682     0.7762613
H           4.2073950    -1.6613178    -0.7553653
O           3.0350510     0.4273570    -1.4457619
C           0.4757726    -1.0432976     0.5582445
C          -0.4748122    -1.5804326    -0.5198917
H          -1.0948242    -0.7828976    -0.9422351
H          -1.1447402    -2.3346996    -0.0911158
H           0.0813512    -2.0461251    -1.3412453
H          -0.1049430    -0.6099851     1.3817098
H           1.0517906    -1.8665455     0.9891901
18
175_C5H11NO_11-0-5-10 (165,) energy =    -327.1453677
N           1.3886868     0.0159615     0.0320841
C           0.8094356     1.3346093    -0.1994551
H           0.2325103     1.6364818     0.6816766
H           0.1460977     1.3517790    -1.0751463
H           1.6189178     2.0423613    -0.3739045
C           2.6135689    -0.2537200    -0.5424795
C           3.2107523    -1.6376675    -0.3086975
H           2.6028328    -2.4302862    -0.7596747
H           3.3163462    -1.8635098     0.7584695
H           4.1972755    -1.6455560    -0.7733189
O           3.2183344     0.5865708    -1.2005104
C           0.4897334    -1.0150999     0.5468392
C          -0.4774150    -1.5845217    -0.4999041
H          -1.1107199    -0.8004292    -0.9279125
H          -1.1336831    -2.3340954    -0.0427338
H           0.0679363    -2.0630253    -1.3209679
H          -0.0806483    -0.5732890     1.3737732
H           1.0846822    -1.8219458     0.9810832
18
175_C5H11NO_11-0-5-10 (180,) energy =    -327.1456697
N           1.3486073    -0.0206187    -0.0614750
C           0.8103748     1.3239868    -0.2209785
H           0.4844128     1.7237173     0.7482869
H          -0.0486272     1.3308483    -0.9039446
H           1.5975055     1.9559393    -0.6297943
C           2.6435583    -0.2676480    -0.4629290
C           3.1715731    -1.6890022    -0.2944541
H           2.5200605    -2.4409507    -0.7520243
H           3.2900860    -1.9478830     0.7646079
H           4.1512973    -1.7262574    -0.7717596
O           3.3628700     0.6118919    -0.9262889
C           0.4487281    -1.0271381     0.4960247
C          -0.5194927    -1.6324038    -0.5287447
H          -1.1440338    -0.8612492    -0.9919346
H          -1.1841913    -2.3564985    -0.0435222
H           0.0251535    -2.1484808    -1.3268896
H          -0.1211460    -0.5495248     1.3038822
H           1.0379025    -1.8187002     0.9643848
